Version 4
SHEET 1 1552 1844
WIRE 96 -496 96 -528
WIRE 224 -496 224 -528
WIRE 96 -368 96 -416
WIRE 224 -368 224 -416
WIRE -96 16 -96 -64
WIRE -272 80 -400 80
WIRE -208 80 -272 80
WIRE -144 80 -208 80
WIRE 1312 112 1232 112
WIRE 1472 112 1392 112
WIRE -96 144 -96 112
WIRE 64 144 -96 144
WIRE 80 144 64 144
WIRE 208 144 160 144
WIRE 224 144 208 144
WIRE 336 144 304 144
WIRE 384 144 336 144
WIRE 512 144 464 144
WIRE 544 144 512 144
WIRE 672 144 624 144
WIRE 720 144 672 144
WIRE 848 144 800 144
WIRE 960 144 960 80
WIRE 960 144 848 144
WIRE 1024 144 960 144
WIRE -400 160 -400 80
WIRE -272 160 -272 80
WIRE 1440 176 1360 176
WIRE -96 192 -96 144
WIRE 1360 192 1360 176
WIRE 64 208 64 144
WIRE 208 208 208 144
WIRE 336 208 336 144
WIRE 512 208 512 144
WIRE 672 208 672 144
WIRE 848 208 848 144
WIRE 1024 208 1024 144
WIRE 1072 208 1024 208
WIRE 1232 208 1232 112
WIRE 1232 208 1152 208
WIRE 1328 208 1232 208
WIRE 1472 224 1472 112
WIRE 1472 224 1392 224
WIRE 1520 224 1520 160
WIRE 1520 224 1472 224
WIRE 1296 240 1216 240
WIRE 1328 240 1296 240
WIRE -400 272 -400 240
WIRE -272 272 -272 240
WIRE -96 304 -96 272
WIRE 64 304 64 272
WIRE 208 304 208 272
WIRE 336 304 336 272
WIRE 512 304 512 272
WIRE 672 304 672 272
WIRE 848 304 848 272
WIRE 1072 304 1024 304
WIRE 1216 304 1216 240
WIRE 1216 304 1152 304
WIRE 1296 320 1296 240
WIRE 1360 320 1360 256
WIRE 1440 320 1440 176
WIRE 960 416 960 368
WIRE 960 416 0 416
WIRE 1024 416 1024 304
WIRE 1024 416 960 416
WIRE 1296 432 1296 400
WIRE -112 592 -112 528
WIRE -208 656 -208 80
WIRE -160 656 -208 656
WIRE -112 704 -112 688
WIRE 0 704 0 416
WIRE 0 704 -112 704
WIRE -112 720 -112 704
WIRE -112 848 -112 800
WIRE 1520 928 1520 224
WIRE 1520 928 -352 928
WIRE -352 1216 -352 928
WIRE -272 1216 -352 1216
WIRE -160 1216 -192 1216
WIRE -160 1264 -160 1216
WIRE -160 1424 -160 1328
FLAG 224 -368 0
FLAG 96 -528 Vcc
FLAG 1440 320 Vcc
FLAG 224 -528 Vee
FLAG 1360 320 Vee
FLAG 96 -368 0
FLAG 64 304 0
FLAG 208 304 0
FLAG 336 304 0
FLAG 1296 432 0
FLAG -96 304 0
FLAG -96 -64 Vcc
FLAG -400 272 0
FLAG -272 272 0
FLAG 960 80 DelaylineOut
FLAG 960 368 NoDelaylineOut
FLAG -112 848 0
FLAG -112 528 Vcc
FLAG 512 304 0
FLAG 1520 160 AmpliifierOutput
FLAG 672 304 0
FLAG 848 304 0
FLAG -160 1424 0
SYMBOL voltage 224 -400 R180
WINDOW 123 0 0 Left 0
WINDOW 39 0 0 Left 0
SYMATTR InstName V3
SYMATTR Value 8
SYMBOL voltage 96 -512 R0
WINDOW 123 0 0 Left 0
WINDOW 39 0 0 Left 0
SYMATTR InstName V4
SYMATTR Value 8
SYMBOL ind 64 160 R270
WINDOW 0 32 56 VTop 2
WINDOW 3 5 56 VBottom 2
SYMATTR InstName L1
SYMATTR Value {LD}
SYMBOL ind 208 160 R270
WINDOW 0 32 56 VTop 2
WINDOW 3 5 56 VBottom 2
SYMATTR InstName L2
SYMATTR Value {LD}
SYMBOL cap 80 272 R180
WINDOW 0 24 56 Left 2
WINDOW 3 24 8 Left 2
SYMATTR InstName C1
SYMATTR Value {CD}
SYMBOL cap 224 272 R180
WINDOW 0 24 56 Left 2
WINDOW 3 24 8 Left 2
SYMATTR InstName C3
SYMATTR Value {CD}
SYMBOL cap 352 272 R180
WINDOW 0 24 56 Left 2
WINDOW 3 24 8 Left 2
SYMATTR InstName C5
SYMATTR Value {CD}
SYMBOL res 1056 224 R270
WINDOW 0 32 56 VTop 2
WINDOW 3 0 56 VBottom 2
SYMATTR InstName R3
SYMATTR Value {R3}
SYMBOL res 1312 416 R180
WINDOW 0 36 76 Left 2
WINDOW 3 36 40 Left 2
SYMATTR InstName R4
SYMATTR Value {Rfeedback}
SYMBOL res 1408 96 R90
WINDOW 0 0 56 VBottom 2
WINDOW 3 32 56 VTop 2
SYMATTR InstName R6
SYMATTR Value {Rfeedback}
SYMBOL res -80 288 R180
WINDOW 0 36 76 Left 2
WINDOW 3 36 40 Left 2
SYMATTR InstName R7
SYMATTR Value 220k
SYMBOL res 1056 320 R270
WINDOW 0 32 56 VTop 2
WINDOW 3 0 56 VBottom 2
SYMATTR InstName R1
SYMATTR Value {R3}
SYMBOL res -256 256 R180
WINDOW 0 36 76 Left 2
WINDOW 3 36 40 Left 2
SYMATTR InstName R2
SYMATTR Value 10k
SYMBOL res -96 816 R180
WINDOW 0 36 76 Left 2
WINDOW 3 36 40 Left 2
SYMATTR InstName R5
SYMATTR Value 220k
SYMBOL njf -160 592 R0
SYMATTR InstName J2
SYMBOL cap 528 272 R180
WINDOW 0 24 56 Left 2
WINDOW 3 24 8 Left 2
SYMATTR InstName C4
SYMATTR Value {CD}
SYMBOL ind 368 160 R270
WINDOW 0 32 56 VTop 2
WINDOW 3 5 56 VBottom 2
SYMATTR InstName L3
SYMATTR Value {LD}
SYMBOL Opamps\\AD8039 1360 160 R0
SYMATTR InstName U1
SYMBOL voltage -400 144 R0
WINDOW 123 0 0 Left 0
WINDOW 39 0 0 Left 0
WINDOW 3 -280 158 Left 2
SYMATTR InstName V1
SYMATTR Value PULSE(0n 150m 100u 1n 1n 6n 100u)
SYMBOL cap 688 272 R180
WINDOW 0 24 56 Left 2
WINDOW 3 24 8 Left 2
SYMATTR InstName C2
SYMATTR Value {CD}
SYMBOL cap 864 272 R180
WINDOW 0 24 56 Left 2
WINDOW 3 24 8 Left 2
SYMATTR InstName C6
SYMATTR Value {CD}
SYMBOL ind 704 160 R270
WINDOW 0 32 56 VTop 2
WINDOW 3 5 56 VBottom 2
SYMATTR InstName L4
SYMATTR Value {LD}
SYMBOL ind 528 160 R270
WINDOW 0 32 56 VTop 2
WINDOW 3 5 56 VBottom 2
SYMATTR InstName L5
SYMATTR Value {LD}
SYMBOL njf -144 16 R0
SYMATTR InstName J5
SYMBOL cap -176 1264 R0
SYMATTR InstName C12
SYMATTR Value 1n
SYMBOL res -176 1200 R90
WINDOW 0 0 56 VBottom 2
WINDOW 3 32 56 VTop 2
SYMATTR InstName R13
SYMATTR Value 10k
TEXT 56 -320 Left 2 !.tran 0 320u 30u 10n uic
TEXT 448 -544 Left 2 ;.step dec param CD 1e-12 1e-9 1
TEXT 472 -368 Left 2 !.param R3=4k7
TEXT -664 16 Left 2 ;Photomultiplier device.
TEXT 456 -496 Left 2 !.param LD=100n
TEXT 464 -456 Left 2 !.param CD=47p
TEXT 472 -416 Left 2 !.param Rfeedback=100k
RECTANGLE Normal -224 320 -720 -16 2
