Version 4
SHEET 1 1664 2728
WIRE -1376 1456 -1520 1456
WIRE -1520 1520 -1520 1456
WIRE -1376 1696 -1376 1456
WIRE -1232 1696 -1376 1696
WIRE -1520 1792 -1520 1600
WIRE -1232 1792 -1232 1696
WIRE -1376 1888 -1376 1696
WIRE -1520 1904 -1520 1872
WIRE -1232 1904 -1232 1872
WIRE -1024 1904 -1232 1904
WIRE -800 1904 -1024 1904
WIRE -1024 1952 -1024 1904
WIRE -1232 1968 -1232 1904
WIRE -1376 2016 -1376 1968
WIRE -1296 2016 -1376 2016
WIRE -384 2048 -416 2048
WIRE -1024 2064 -1024 2032
WIRE -1024 2064 -1136 2064
WIRE -384 2064 -384 2048
WIRE -1376 2080 -1376 2016
WIRE -1024 2096 -1024 2064
WIRE -928 2096 -928 2064
WIRE -416 2096 -416 2048
WIRE -608 2128 -608 2096
WIRE -1232 2176 -1232 2064
WIRE -928 2192 -928 2160
WIRE -1024 2208 -1024 2176
WIRE -416 2208 -416 2176
WIRE -1648 2224 -1680 2224
WIRE -1552 2224 -1568 2224
WIRE -1424 2224 -1552 2224
WIRE -1296 2224 -1424 2224
WIRE -608 2224 -608 2208
WIRE -1552 2256 -1552 2224
WIRE -1424 2272 -1424 2224
WIRE -1232 2320 -1232 2272
WIRE -560 2320 -608 2320
WIRE -432 2320 -480 2320
WIRE -1552 2368 -1552 2336
WIRE -1136 2416 -1136 2064
WIRE -976 2416 -1136 2416
WIRE -928 2416 -976 2416
WIRE -976 2432 -976 2416
WIRE -752 2432 -864 2432
WIRE -608 2432 -608 2320
WIRE -608 2432 -672 2432
WIRE -560 2432 -608 2432
WIRE -928 2448 -1040 2448
WIRE -432 2448 -432 2320
WIRE -432 2448 -496 2448
WIRE -400 2448 -432 2448
WIRE -560 2464 -592 2464
WIRE -1040 2480 -1040 2448
WIRE -592 2512 -592 2464
WIRE -1040 2624 -1040 2560
WIRE -1680 2720 -1680 2224
WIRE -400 2720 -400 2448
WIRE -400 2720 -1680 2720
FLAG -1520 1904 0
FLAG -800 1904 out
IOPIN -800 1904 Out
FLAG -608 2224 0
FLAG -384 2064 0
FLAG -608 2096 vcc
FLAG -416 2208 vee
FLAG -1024 2208 0
FLAG -1376 2160 0
FLAG -1232 2320 0
FLAG -896 2400 vcc
FLAG -896 2464 vee
FLAG -1040 2624 0
FLAG -528 2416 vcc
FLAG -528 2480 vee
FLAG -592 2512 0
FLAG -1552 2368 0
FLAG -928 2192 0
SYMBOL voltage -1520 1776 R0
WINDOW 123 0 0 Left 0
WINDOW 39 0 0 Left 0
WINDOW 3 -98 58 Left 2
SYMATTR Value 20
SYMATTR InstName V4
SYMBOL voltage -1520 1504 R0
WINDOW 123 0 0 Left 0
WINDOW 39 0 0 Left 0
WINDOW 3 -576 50 Left 2
SYMATTR Value PULSE(0 2 0 1m 1m 3e-3 5e-3 0)
SYMATTR InstName V7
SYMBOL voltage -608 2112 R0
WINDOW 123 0 0 Left 0
WINDOW 39 0 0 Left 0
WINDOW 3 -70 67 Left 2
SYMATTR Value 20
SYMATTR InstName V9
SYMBOL voltage -416 2080 R0
WINDOW 123 0 0 Left 0
WINDOW 39 0 0 Left 0
WINDOW 3 -80 55 Left 2
SYMATTR Value 20
SYMATTR InstName V10
SYMBOL res -1008 2048 R180
WINDOW 0 36 76 Left 2
WINDOW 3 36 40 Left 2
SYMATTR InstName R20
SYMATTR Value 1e3
SYMBOL res -1008 2192 R180
WINDOW 0 36 76 Left 2
WINDOW 3 36 40 Left 2
SYMATTR InstName R22
SYMATTR Value 666
SYMATTR SpiceLine pwr=10
SYMBOL npn -1296 1968 R0
SYMATTR InstName Q3
SYMBOL res -1360 1984 R180
WINDOW 0 36 76 Left 2
WINDOW 3 36 40 Left 2
SYMATTR InstName R4
SYMATTR Value 1e3
SYMBOL res -1360 2176 R180
WINDOW 0 36 76 Left 2
WINDOW 3 36 40 Left 2
SYMATTR InstName R6
SYMATTR Value 1e3
SYMBOL res -1216 1888 R180
WINDOW 0 36 76 Left 2
WINDOW 3 36 40 Left 2
SYMATTR InstName R7
SYMATTR Value 1e3
SYMBOL res -1664 2240 R270
WINDOW 0 32 56 VTop 2
WINDOW 3 0 56 VBottom 2
SYMATTR InstName R8
SYMATTR Value 1e2
SYMBOL voltage -1040 2464 R0
WINDOW 123 0 0 Left 0
WINDOW 39 0 0 Left 0
WINDOW 3 -215 55 Left 2
SYMATTR Value 5
SYMATTR InstName V11
SYMBOL npn -1296 2176 R0
SYMATTR InstName Q6
SYMBOL res -768 2448 R270
WINDOW 0 32 56 VTop 2
WINDOW 3 0 56 VBottom 2
SYMATTR InstName R9
SYMATTR Value 10k
SYMATTR SpiceLine pwr=10
SYMBOL res -576 2336 R270
WINDOW 0 32 56 VTop 2
WINDOW 3 0 56 VBottom 2
SYMATTR InstName R10
SYMATTR Value 1k
SYMATTR SpiceLine pwr=10
SYMBOL res -1568 2240 R0
SYMATTR InstName R1
SYMATTR Value 1e3
SYMBOL cap -944 2096 R0
SYMATTR InstName C1
SYMATTR Value 1µ
SYMBOL Opamps\\LT1178A -528 2384 R0
SYMATTR InstName U3
SYMBOL Opamps\\LT1178A -896 2368 R0
SYMATTR InstName U2
TEXT -576 1904 Left 2 !.tran 0 10mS 1m 1uS
