Version 4
SHEET 1 1664 3060
WIRE -1264 1600 -1520 1600
WIRE -704 1600 -1168 1600
WIRE -560 1600 -704 1600
WIRE -1216 1728 -1216 1664
WIRE -704 1728 -704 1600
WIRE -1008 1776 -1152 1776
WIRE -1520 1792 -1520 1600
WIRE -1008 1808 -1008 1776
WIRE -1216 1872 -1216 1824
WIRE -1520 1904 -1520 1872
WIRE -1008 1920 -1008 1888
WIRE -1008 1920 -1152 1920
WIRE -1008 1952 -1008 1920
WIRE -1216 2000 -1216 1968
WIRE -1008 2048 -1008 2032
WIRE -1008 2048 -1152 2048
WIRE -1008 2096 -1008 2048
WIRE -1216 2160 -1216 2096
WIRE -1008 2208 -1008 2176
WIRE -1008 2208 -1152 2208
WIRE -1008 2240 -1008 2208
WIRE -848 2240 -880 2240
WIRE -704 2240 -704 1808
WIRE -704 2240 -768 2240
WIRE -1216 2368 -1216 2256
WIRE -704 2400 -704 2240
WIRE -880 2416 -880 2240
WIRE -880 2416 -1152 2416
WIRE -1520 2576 -1520 1984
WIRE -1216 2576 -1216 2464
WIRE -1008 2576 -1008 2320
WIRE -704 2576 -704 2480
FLAG -1520 2576 0
FLAG -560 1600 out
IOPIN -560 1600 Out
FLAG -1216 2576 0
FLAG -1008 2576 0
FLAG -704 2576 0
SYMBOL voltage -1520 1888 R0
WINDOW 123 0 0 Left 0
WINDOW 39 0 0 Left 0
WINDOW 3 -125 60 Left 2
SYMATTR Value 1600
SYMATTR InstName V4
SYMBOL voltage -1520 1776 R0
WINDOW 123 0 0 Left 0
WINDOW 39 0 0 Left 0
WINDOW 3 -20 -14 Right 2
SYMATTR Value PULSE(-50 100 0 1m 1m 3e-3 5e-3 0)
SYMATTR InstName V7
SYMBOL npn -1152 1728 M0
SYMATTR InstName Q3
SYMBOL res -688 1824 R180
WINDOW 0 36 76 Left 2
WINDOW 3 36 40 Left 2
SYMATTR InstName R7
SYMATTR Value 3e2
SYMBOL voltage -1008 1792 R0
WINDOW 123 0 0 Left 0
WINDOW 39 0 0 Left 0
WINDOW 3 -98 58 Left 2
SYMATTR Value 500
SYMATTR InstName V1
SYMBOL res -688 2496 R180
WINDOW 0 36 76 Left 2
WINDOW 3 36 40 Left 2
SYMATTR InstName R4
SYMATTR Value 5e5
SYMBOL npn -1152 2000 M0
SYMATTR InstName Q4
SYMBOL voltage -1008 1936 R0
WINDOW 123 0 0 Left 0
WINDOW 39 0 0 Left 0
WINDOW 3 -98 58 Left 2
SYMATTR Value 500
SYMATTR InstName V2
SYMBOL voltage -1008 2080 R0
WINDOW 123 0 0 Left 0
WINDOW 39 0 0 Left 0
WINDOW 3 -98 58 Left 2
SYMATTR Value 500
SYMATTR InstName V3
SYMBOL voltage -1008 2224 R0
WINDOW 123 0 0 Left 0
WINDOW 39 0 0 Left 0
WINDOW 3 -98 58 Left 2
SYMATTR Value 12
SYMATTR InstName V5
SYMBOL npn -1152 2160 M0
SYMATTR InstName Q6
SYMBOL npn -1152 1872 M0
SYMATTR InstName Q2
SYMBOL npn -1152 2368 M0
SYMATTR InstName Q7
SYMBOL res -864 2256 R270
WINDOW 0 32 56 VTop 2
WINDOW 3 0 56 VBottom 2
SYMATTR InstName R2
SYMATTR Value 3e4
SYMBOL npn -1264 1664 R270
SYMATTR InstName Q8
TEXT -1552 2672 Left 2 !.tran 0 15mS 1m 1uS
