Version 4
SHEET 1 1664 3060
WIRE -1264 1600 -1520 1600
WIRE -912 1600 -1168 1600
WIRE -784 1600 -912 1600
WIRE -704 1600 -784 1600
WIRE -640 1600 -704 1600
WIRE -1216 1728 -1216 1664
WIRE -912 1728 -912 1600
WIRE -784 1728 -784 1600
WIRE -1008 1776 -1152 1776
WIRE -1520 1792 -1520 1600
WIRE -1008 1808 -1008 1776
WIRE -1216 1888 -1216 1824
WIRE -704 1888 -704 1600
WIRE -1520 1920 -1520 1872
WIRE -912 1936 -912 1792
WIRE -912 1936 -1152 1936
WIRE -784 1936 -784 1808
WIRE -784 1936 -912 1936
WIRE -784 2000 -784 1936
WIRE -1216 2048 -1216 1984
WIRE -1520 2176 -1520 2000
WIRE -1216 2176 -1216 2128
WIRE -1008 2176 -1008 1888
WIRE -784 2176 -784 2080
WIRE -704 2176 -704 1952
FLAG -1520 2176 0
FLAG -640 1600 out
IOPIN -640 1600 Out
FLAG -1216 2176 0
FLAG -1008 2176 0
FLAG -784 2176 0
FLAG -704 2176 0
FLAG -944 2176 0
SYMBOL voltage -1520 1904 R0
WINDOW 123 0 0 Left 0
WINDOW 39 0 0 Left 0
WINDOW 3 -125 60 Left 2
SYMATTR Value 1600
SYMATTR InstName V4
SYMBOL voltage -1520 1776 R0
WINDOW 123 0 0 Left 0
WINDOW 39 0 0 Left 0
WINDOW 3 -20 -14 Right 2
SYMATTR Value PULSE(-100 200 0 1m 1m 3e-3 5e-3 0)
SYMATTR InstName V7
SYMBOL npn -1152 1728 M0
SYMATTR InstName Q3
SYMBOL res -768 1824 R180
WINDOW 0 36 76 Left 2
WINDOW 3 36 40 Left 2
SYMATTR InstName R7
SYMATTR Value 960
SYMBOL res -1232 2032 R0
SYMATTR InstName R1
SYMATTR Value 47e3
SYMBOL cap -720 1888 R0
SYMATTR InstName C1
SYMATTR Value 47n
SYMBOL voltage -1008 1792 R0
WINDOW 123 0 0 Left 0
WINDOW 39 0 0 Left 0
WINDOW 3 -98 58 Left 2
SYMATTR Value 1000
SYMATTR InstName V1
SYMBOL pnp -1264 1664 R270
SYMATTR InstName Q1
SYMBOL pnp -1152 1984 R180
SYMATTR InstName Q2
SYMBOL res -768 2096 R180
WINDOW 0 36 76 Left 2
WINDOW 3 36 40 Left 2
SYMATTR InstName R4
SYMATTR Value 1e3
SYMBOL cap -928 1728 R0
SYMATTR InstName C2
SYMATTR Value 12p
TEXT -1552 2272 Left 2 !.tran 0 10mS 1m 1uS
