Version 4
SHEET 1 880 680
WIRE 208 16 -384 16
WIRE 208 80 208 16
WIRE -384 96 -384 16
WIRE 208 96 208 80
WIRE -48 160 -208 160
WIRE 64 160 -48 160
WIRE 160 160 64 160
WIRE 64 176 64 160
WIRE 160 176 64 176
WIRE -48 208 -48 160
WIRE 208 208 208 176
WIRE 304 208 208 208
WIRE 208 224 208 208
WIRE -208 256 -208 160
WIRE 208 336 208 304
WIRE -384 368 -384 176
WIRE -208 368 -208 336
WIRE -48 384 -48 288
FLAG -384 368 0
FLAG 208 336 0
FLAG 304 208 Out
FLAG -208 368 0
FLAG -48 384 0
SYMBOL voltage -384 80 R0
WINDOW 123 0 0 Left 0
WINDOW 39 0 0 Left 0
SYMATTR InstName V1
SYMATTR Value 12
SYMBOL res 192 208 R0
SYMATTR InstName R1
SYMATTR Value 1e6
SYMBOL voltage -208 240 R0
WINDOW 123 0 0 Left 0
WINDOW 39 0 0 Left 0
SYMATTR InstName V2
SYMATTR Value PULSE(0 3.3 20u 1u 1u 30u)
SYMBOL pmos 160 80 R0
SYMATTR InstName M2
SYMBOL res -64 192 R0
SYMATTR InstName R2
SYMATTR Value 100
TEXT -250 512 Left 2 !.tran 50u
