Version 4
SHEET 1 880 680
WIRE 64 -160 -608 -160
WIRE 208 -160 64 -160
WIRE 368 -160 304 -160
WIRE 64 -32 64 -160
WIRE -64 -16 -432 -16
WIRE 16 -16 -64 -16
WIRE 64 64 64 48
WIRE 368 64 368 -160
WIRE 464 64 368 64
WIRE -608 96 -608 -160
WIRE -432 96 -432 -16
WIRE 64 112 64 64
WIRE 224 112 224 -112
WIRE 224 112 64 112
WIRE 368 128 368 64
WIRE -64 192 -64 -16
WIRE 64 192 64 112
WIRE -608 368 -608 176
WIRE -432 368 -432 176
WIRE -64 400 -64 272
WIRE 64 400 64 272
WIRE 368 400 368 208
FLAG -608 368 0
FLAG 368 400 0
FLAG 464 64 Out
FLAG -432 368 0
FLAG 64 400 0
FLAG -64 400 0
SYMBOL voltage -608 80 R0
WINDOW 123 0 0 Left 0
WINDOW 39 0 0 Left 0
SYMATTR InstName V1
SYMATTR Value 4
SYMBOL voltage -432 80 R0
WINDOW 123 0 0 Left 0
WINDOW 39 0 0 Left 0
SYMATTR InstName V2
SYMATTR Value PULSE(0 4 20u 1u 1u 20u)
SYMBOL pmos 304 -112 M270
SYMATTR InstName M2
SYMBOL res 48 176 R0
SYMATTR InstName R2
SYMATTR Value 1k
SYMBOL res 352 112 R0
SYMATTR InstName R1
SYMATTR Value 100k
SYMBOL pmos 16 64 M180
SYMATTR InstName M1
SYMBOL res -80 176 R0
SYMATTR InstName R3
SYMATTR Value 1k
TEXT -248 512 Left 2 !.tran 150u
