Version 4
SHEET 1 1048 1264
WIRE 176 80 64 80
WIRE 272 80 240 80
WIRE 128 144 128 -96
WIRE -464 160 -576 160
WIRE -400 160 -464 160
WIRE -128 160 -320 160
WIRE 64 160 64 80
WIRE 64 160 -128 160
WIRE 96 160 64 160
WIRE 272 176 272 80
WIRE 272 176 160 176
WIRE 336 176 272 176
WIRE 96 192 32 192
WIRE -576 224 -576 160
WIRE -464 240 -464 160
WIRE 32 240 32 192
WIRE 128 272 128 208
WIRE 272 288 272 176
WIRE 624 288 272 288
WIRE -576 352 -576 304
WIRE -464 352 -464 304
WIRE -128 352 -128 160
WIRE -128 464 -128 432
WIRE 272 480 272 464
WIRE 352 496 352 480
WIRE 352 496 304 496
WIRE 48 512 -64 512
WIRE 80 512 48 512
WIRE 240 512 160 512
WIRE 448 528 304 528
WIRE 480 528 448 528
WIRE 624 528 624 288
WIRE 624 528 560 528
WIRE 48 560 48 512
WIRE 352 560 352 496
WIRE 272 576 272 544
WIRE 448 576 448 528
WIRE -128 608 -128 560
WIRE 48 656 48 624
WIRE 352 672 352 640
WIRE 448 672 448 640
WIRE -320 1072 -320 992
WIRE -192 1072 -192 992
WIRE -320 1200 -320 1152
WIRE -192 1200 -192 1152
FLAG -576 352 0
FLAG 336 176 ChargeAmplifierOutput
FLAG 32 240 0
FLAG -320 1200 0
FLAG -464 352 0
FLAG -192 1200 0
FLAG -320 992 Vcc
FLAG 128 -96 Vcc
FLAG -192 992 Vee
FLAG 128 272 Vee
FLAG 272 576 Vee
FLAG 272 464 Vcc
FLAG 352 672 0
FLAG 448 672 0
FLAG 352 400 Vcc
FLAG 48 656 0
FLAG -128 608 0
SYMBOL Opamps\\AD8039 128 112 R0
SYMATTR InstName U1
SYMBOL cap 240 64 R90
WINDOW 0 0 32 VBottom 2
WINDOW 3 32 32 VTop 2
SYMATTR InstName C1
SYMATTR Value 1µ
SYMBOL voltage -576 208 R0
WINDOW 3 -415 -60 Left 2
WINDOW 123 0 0 Left 0
WINDOW 39 0 0 Left 0
SYMATTR Value PULSE(0 -2m 0.5u 100p 100p 2u 4u 100)
SYMATTR InstName V2
SYMBOL voltage -192 1168 R180
WINDOW 123 0 0 Left 0
WINDOW 39 0 0 Left 0
SYMATTR InstName V3
SYMATTR Value 8
SYMBOL res -304 144 R90
WINDOW 0 0 56 VBottom 2
WINDOW 3 32 56 VTop 2
SYMATTR InstName R2
SYMATTR Value 1m
SYMBOL voltage -320 1056 R0
WINDOW 123 0 0 Left 0
WINDOW 39 0 0 Left 0
SYMATTR InstName V4
SYMATTR Value 8
SYMBOL cap -480 240 R0
SYMATTR InstName C2
SYMATTR Value 200p
SYMBOL Opamps\\AD8039 272 448 M0
SYMATTR InstName U3
SYMBOL res 336 544 R0
SYMATTR InstName R3
SYMATTR Value 1k
SYMBOL res 336 384 R0
SYMATTR InstName R4
SYMATTR Value 9k
SYMBOL res 576 512 R90
WINDOW 0 0 56 VBottom 2
WINDOW 3 32 56 VTop 2
SYMATTR InstName R5
SYMATTR Value 1k
SYMBOL cap 432 576 R0
SYMATTR InstName C3
SYMATTR Value 1n
SYMBOL res 176 496 R90
WINDOW 0 0 56 VBottom 2
WINDOW 3 32 56 VTop 2
SYMATTR InstName R7
SYMATTR Value 1
SYMBOL cap 32 560 R0
SYMATTR InstName C4
SYMATTR Value 2p
SYMBOL npn -64 464 M0
SYMATTR InstName Q1
SYMBOL res -144 336 R0
SYMATTR InstName R8
SYMATTR Value 1m
TEXT -360 1248 Left 2 !.tran 150u startup
