Version 4
SHEET 1 1428 1716
WIRE 96 -576 96 -608
WIRE 368 -528 368 -608
WIRE 0 -512 -80 -512
WIRE 0 -480 0 -512
WIRE 96 -464 96 -496
WIRE 96 -464 32 -464
WIRE 448 -464 416 -464
WIRE -144 -448 -144 -496
WIRE -32 -448 -144 -448
WIRE 208 -432 32 -432
WIRE 240 -432 208 -432
WIRE 368 -432 320 -432
WIRE 96 -400 96 -464
WIRE 208 -400 208 -432
WIRE 368 -400 368 -432
WIRE -80 -368 -80 -512
WIRE 0 -368 0 -416
WIRE 96 -304 96 -320
WIRE 208 -304 208 -336
WIRE 368 -304 368 -320
WIRE -144 -144 -144 -448
WIRE 176 -144 -144 -144
WIRE 176 -112 176 -144
WIRE 32 -64 -16 -64
WIRE 144 -64 112 -64
WIRE 272 -64 240 -64
WIRE -16 48 -16 -64
WIRE 80 48 -16 48
WIRE 272 48 272 -64
WIRE 272 48 144 48
WIRE 208 128 128 128
WIRE -544 144 -656 144
WIRE -432 144 -544 144
WIRE -352 144 -432 144
WIRE -320 144 -352 144
WIRE -144 144 -240 144
WIRE -16 144 -16 48
WIRE -16 144 -80 144
WIRE 128 144 128 128
WIRE -16 160 -16 144
WIRE 96 160 -16 160
WIRE 272 176 272 48
WIRE 272 176 160 176
WIRE 448 176 448 -464
WIRE 448 176 272 176
WIRE 528 176 528 96
WIRE 528 176 448 176
WIRE 560 176 528 176
WIRE 672 176 624 176
WIRE 768 176 768 96
WIRE 768 176 672 176
WIRE 96 192 32 192
WIRE 672 192 672 176
WIRE -656 208 -656 144
WIRE -544 208 -544 144
WIRE -432 208 -432 144
WIRE -352 224 -352 144
WIRE 32 240 32 192
WIRE 128 272 128 208
WIRE 208 272 208 128
WIRE 672 304 672 272
WIRE -656 336 -656 288
WIRE -544 336 -544 288
WIRE -432 336 -432 288
WIRE -352 336 -352 288
WIRE -64 544 -64 512
WIRE 64 544 64 512
WIRE -64 672 -64 624
WIRE 64 672 64 624
FLAG -432 336 0
FLAG 528 96 ChargeAmplifierOutput
FLAG 32 240 0
FLAG -352 336 0
FLAG 64 672 0
FLAG -64 512 Vcc
FLAG 208 272 Vcc
FLAG 64 512 Vee
FLAG 128 272 Vee
FLAG 672 304 0
FLAG 768 96 ConditionerInput
FLAG -64 672 0
FLAG -544 336 0
FLAG -656 336 0
FLAG -80 -368 Vcc
FLAG 0 -368 Vee
FLAG 96 -304 0
FLAG 96 -608 Vcc
FLAG 208 -304 0
FLAG -144 -496 ComparatorOut
FLAG 368 -608 Vcc
FLAG 368 -304 0
SYMBOL cap 144 32 R90
WINDOW 0 0 32 VBottom 2
WINDOW 3 32 32 VTop 2
SYMATTR InstName C1
SYMATTR Value 20p
SYMBOL voltage 64 640 R180
WINDOW 123 0 0 Left 0
WINDOW 39 0 0 Left 0
SYMATTR InstName V3
SYMATTR Value 8
SYMBOL voltage -64 528 R0
WINDOW 123 0 0 Left 0
WINDOW 39 0 0 Left 0
SYMATTR InstName V4
SYMATTR Value 8
SYMBOL cap -368 224 R0
SYMATTR InstName C2
SYMATTR Value 100p
SYMBOL res -224 128 R90
WINDOW 0 0 56 VBottom 2
WINDOW 3 32 56 VTop 2
SYMATTR InstName R2
SYMATTR Value 1R
SYMBOL current -432 208 R0
WINDOW 3 -2 162 Invisible 2
WINDOW 123 -279 149 Left 2
WINDOW 39 0 0 Left 0
SYMATTR Value PULSE(0 70n 120e-6 1e-7 1e-7 1e-5 60u 0)
SYMATTR InstName I1
SYMBOL cap 624 160 R90
WINDOW 0 0 32 VBottom 2
WINDOW 3 32 32 VTop 2
SYMATTR InstName C3
SYMATTR Value 470p
SYMBOL res 656 176 R0
SYMATTR InstName R1
SYMATTR Value 1k
SYMBOL current -544 208 R0
WINDOW 3 1 158 Invisible 2
WINDOW 123 -279 149 Left 2
WINDOW 39 0 0 Left 0
SYMATTR Value PULSE(0 20n 60e-6 1e-7 1e-7 1e-5 60u 1)
SYMATTR InstName I2
SYMBOL current -656 208 R0
WINDOW 3 0 160 Invisible 2
WINDOW 123 -279 149 Left 2
WINDOW 39 0 0 Left 0
SYMATTR Value PULSE(0 100n 20u 1e-7 1e-7 1e-5 60u 1)
SYMATTR InstName I3
SYMBOL Opamps\\AD8034 128 112 R0
SYMATTR InstName U2
SYMBOL res 16 -48 R270
WINDOW 0 32 56 VTop 2
WINDOW 3 0 56 VBottom 2
SYMATTR InstName R4
SYMATTR Value 5m
SYMBOL cap -80 128 R90
WINDOW 0 0 32 VBottom 2
WINDOW 3 32 32 VTop 2
SYMATTR InstName C4
SYMATTR Value 20p
SYMBOL res 112 -304 R180
WINDOW 0 36 76 Left 2
WINDOW 3 36 40 Left 2
SYMATTR InstName R3
SYMATTR Value 4k7
SYMBOL res 112 -480 R180
WINDOW 0 36 76 Left 2
WINDOW 3 36 40 Left 2
SYMATTR InstName R5
SYMATTR Value 9k
SYMBOL Comparators\\LT1716 0 -448 M0
SYMATTR InstName U3
SYMBOL res 224 -416 R270
WINDOW 0 32 56 VTop 2
WINDOW 3 0 56 VBottom 2
SYMATTR InstName R8
SYMATTR Value 100k
SYMBOL cap 224 -336 R180
WINDOW 0 24 56 Left 2
WINDOW 3 24 8 Left 2
SYMATTR InstName C7
SYMATTR Value 100n
SYMBOL njf 240 -112 R90
SYMATTR InstName J4
SYMBOL njf 416 -528 M0
SYMATTR InstName J1
SYMBOL res 384 -304 R180
WINDOW 0 36 76 Left 2
WINDOW 3 36 40 Left 2
SYMATTR InstName R6
SYMATTR Value 4k7
TEXT -104 720 Left 2 !.tran 0 50m 15u startup
TEXT -104 752 Left 2 ;.step param R3 list 2e3 3e4 4e4
TEXT 368 752 Left 2 ;.param R3 1e15
TEXT -752 80 Left 2 ;Photomultiplier device.
RECTANGLE Normal -192 384 -784 48 2
