Version 4
SHEET 1 1428 1264
WIRE -592 -880 -592 -928
WIRE -592 -736 -592 -800
WIRE 192 -688 192 -704
WIRE -480 -656 -544 -656
WIRE 96 -624 16 -624
WIRE -592 -592 -592 -640
WIRE 96 -592 96 -624
WIRE 192 -576 192 -608
WIRE 192 -576 128 -576
WIRE -480 -560 -480 -656
WIRE -400 -560 -480 -560
WIRE -288 -560 -400 -560
WIRE -240 -560 -288 -560
WIRE -128 -560 -176 -560
WIRE -96 -560 -128 -560
WIRE 64 -560 -32 -560
WIRE -288 -544 -288 -560
WIRE -128 -544 -128 -560
WIRE 304 -544 128 -544
WIRE 336 -544 304 -544
WIRE 480 -544 416 -544
WIRE 192 -512 192 -576
WIRE 304 -512 304 -544
WIRE 16 -480 16 -624
WIRE 96 -480 96 -528
WIRE -288 -448 -288 -464
WIRE -128 -448 -128 -464
WIRE 192 -416 192 -432
WIRE 304 -416 304 -448
WIRE -272 -304 -448 -304
WIRE -128 -304 -176 -304
WIRE 64 -304 -48 -304
WIRE 112 -304 64 -304
WIRE 272 -304 208 -304
WIRE 64 -224 64 -304
WIRE 192 -224 192 -256
WIRE 192 -224 64 -224
WIRE -400 -208 -400 -560
WIRE -256 -208 -256 -256
WIRE -256 -208 -400 -208
WIRE 192 -176 192 -224
WIRE 112 -128 64 -128
WIRE 272 -128 272 -304
WIRE 272 -128 208 -128
WIRE -448 -112 -448 -304
WIRE 64 -80 64 -128
WIRE 64 48 64 0
WIRE 144 48 64 48
WIRE 272 48 272 -128
WIRE 272 48 208 48
WIRE 208 128 128 128
WIRE -432 144 -544 144
WIRE -320 144 -432 144
WIRE -240 144 -320 144
WIRE -208 144 -240 144
WIRE -64 144 -128 144
WIRE 64 144 64 48
WIRE 64 144 0 144
WIRE 128 144 128 128
WIRE 64 160 64 144
WIRE 96 160 64 160
WIRE 272 176 272 48
WIRE 272 176 160 176
WIRE 480 176 480 -544
WIRE 480 176 272 176
WIRE 528 176 528 96
WIRE 528 176 480 176
WIRE 560 176 528 176
WIRE 640 176 624 176
WIRE 768 176 768 96
WIRE 768 176 640 176
WIRE 96 192 32 192
WIRE 640 192 640 176
WIRE -544 208 -544 144
WIRE -432 208 -432 144
WIRE -320 208 -320 144
WIRE -240 224 -240 144
WIRE 32 240 32 192
WIRE 128 272 128 208
WIRE 208 272 208 128
WIRE 640 304 640 272
WIRE -544 336 -544 288
WIRE -432 336 -432 288
WIRE -320 336 -320 288
WIRE -240 336 -240 288
WIRE -64 544 -64 512
WIRE 64 544 64 512
WIRE -64 672 -64 624
WIRE 64 672 64 624
FLAG -320 336 0
FLAG 528 96 ChargeAmplifierOutput
FLAG 32 240 0
FLAG -240 336 0
FLAG 64 672 0
FLAG -64 512 Vcc
FLAG 208 272 Vcc
FLAG 64 512 Vee
FLAG 128 272 Vee
FLAG 640 304 0
FLAG 768 96 ConditionerInput
FLAG -64 672 0
FLAG -432 336 0
FLAG -544 336 0
FLAG 16 -480 Vcc
FLAG 96 -480 Vee
FLAG 192 -416 0
FLAG 192 -704 Vcc
FLAG -448 -112 0
FLAG -624 -976 Vee
FLAG -592 -592 0
FLAG -592 -928 Vcc
FLAG -288 -448 0
FLAG -128 -448 0
FLAG 304 -416 0
SYMBOL cap 208 32 R90
WINDOW 0 0 32 VBottom 2
WINDOW 3 32 32 VTop 2
SYMATTR InstName C1
SYMATTR Value 20p
SYMBOL voltage 64 640 R180
WINDOW 123 0 0 Left 0
WINDOW 39 0 0 Left 0
SYMATTR InstName V3
SYMATTR Value 8
SYMBOL voltage -64 528 R0
WINDOW 123 0 0 Left 0
WINDOW 39 0 0 Left 0
SYMATTR InstName V4
SYMATTR Value 8
SYMBOL cap -256 224 R0
SYMATTR InstName C2
SYMATTR Value 100p
SYMBOL res -112 128 R90
WINDOW 0 0 56 VBottom 2
WINDOW 3 32 56 VTop 2
SYMATTR InstName R2
SYMATTR Value 1R
SYMBOL current -320 208 R0
WINDOW 3 -2 162 Invisible 2
WINDOW 123 -279 149 Left 2
WINDOW 39 0 0 Left 0
SYMATTR Value PULSE(0 70n 120e-6 1e-7 1e-7 1e-5 60u 0)
SYMATTR InstName I1
SYMBOL cap 624 160 R90
WINDOW 0 0 32 VBottom 2
WINDOW 3 32 32 VTop 2
SYMATTR InstName C3
SYMATTR Value 470p
SYMBOL res 624 176 R0
SYMATTR InstName R1
SYMATTR Value 1k
SYMBOL current -432 208 R0
WINDOW 3 1 158 Invisible 2
WINDOW 123 -279 149 Left 2
WINDOW 39 0 0 Left 0
SYMATTR Value PULSE(0 20n 60e-6 1e-7 1e-7 1e-5 60u 1)
SYMATTR InstName I2
SYMBOL current -544 208 R0
WINDOW 3 0 160 Invisible 2
WINDOW 123 -279 149 Left 2
WINDOW 39 0 0 Left 0
SYMATTR Value PULSE(0 100n 20u 1e-7 1e-7 1e-5 60u 1)
SYMATTR InstName I3
SYMBOL Opamps\\AD8034 128 112 R0
SYMATTR InstName U2
SYMBOL pmos 112 -176 M90
SYMATTR InstName M2
SYMBOL pmos 112 -256 R270
SYMATTR InstName M3
SYMBOL res 80 16 R180
WINDOW 0 36 76 Left 2
WINDOW 3 36 40 Left 2
SYMATTR InstName R4
SYMATTR Value 5µ
SYMBOL cap 0 128 R90
WINDOW 0 0 32 VBottom 2
WINDOW 3 32 32 VTop 2
SYMATTR InstName C4
SYMATTR Value 20p
SYMBOL res 208 -416 R180
WINDOW 0 36 76 Left 2
WINDOW 3 36 40 Left 2
SYMATTR InstName R3
SYMATTR Value 4k
SYMBOL res 208 -592 R180
WINDOW 0 36 76 Left 2
WINDOW 3 36 40 Left 2
SYMATTR InstName R5
SYMATTR Value 9k
SYMBOL Comparators\\LT1716 96 -560 M0
SYMATTR InstName U3
SYMBOL res -144 -288 R270
WINDOW 0 32 56 VTop 2
WINDOW 3 0 56 VBottom 2
SYMATTR InstName R9
SYMATTR Value 1
SYMBOL nmos -544 -736 M0
SYMATTR InstName M5
SYMBOL res -576 -784 R180
WINDOW 0 36 76 Left 2
WINDOW 3 36 40 Left 2
SYMATTR InstName R7
SYMATTR Value 1k
SYMBOL res -272 -448 R180
WINDOW 0 36 76 Left 2
WINDOW 3 36 40 Left 2
SYMATTR InstName R12
SYMATTR Value 100k
SYMBOL diode -32 -576 R90
WINDOW 0 0 32 VBottom 2
WINDOW 3 32 32 VTop 2
SYMATTR InstName D1
SYMBOL nmos -176 -256 M270
SYMATTR InstName M6
SYMBOL cap -176 -576 R90
WINDOW 0 0 32 VBottom 2
WINDOW 3 32 32 VTop 2
SYMATTR InstName C5
SYMATTR Value 1µ
SYMBOL res -112 -448 R180
WINDOW 0 36 76 Left 2
WINDOW 3 36 40 Left 2
SYMATTR InstName R6
SYMATTR Value 22k
SYMBOL res 320 -528 R270
WINDOW 0 32 56 VTop 2
WINDOW 3 0 56 VBottom 2
SYMATTR InstName R8
SYMATTR Value 100k
SYMBOL cap 320 -448 R180
WINDOW 0 24 56 Left 2
WINDOW 3 24 8 Left 2
SYMATTR InstName C7
SYMATTR Value 100n
TEXT -104 720 Left 2 !.tran 0 50m 15u startup
TEXT -104 752 Left 2 ;.step param R3 list 2e3 3e4 4e4
TEXT 368 752 Left 2 ;.param R3 1e15
TEXT -640 80 Left 2 ;Photomultiplier device.
RECTANGLE Normal -80 384 -672 48 2
