Version 4
SHEET 1 1048 680
WIRE 160 -16 64 -16
WIRE 272 -16 240 -16
WIRE 64 80 64 -16
WIRE 176 80 64 80
WIRE 272 80 272 -16
WIRE 272 80 240 80
WIRE 128 144 128 -96
WIRE -304 160 -576 160
WIRE -160 160 -304 160
WIRE 64 160 64 80
WIRE 64 160 -80 160
WIRE 96 160 64 160
WIRE 272 176 272 80
WIRE 272 176 160 176
WIRE 336 176 272 176
WIRE 96 192 32 192
WIRE -576 224 -576 160
WIRE -304 240 -304 160
WIRE 32 240 32 192
WIRE 128 272 128 208
WIRE -576 352 -576 304
WIRE -304 352 -304 304
WIRE -1312 384 -1312 304
WIRE -1184 384 -1184 304
WIRE -1312 512 -1312 464
WIRE -1184 512 -1184 464
FLAG -576 352 0
FLAG 336 176 ChargeAmplifierOutput
FLAG 32 240 0
FLAG -1312 512 0
FLAG -304 352 0
FLAG -1184 512 0
FLAG -1312 304 Vcc
FLAG 128 -96 Vcc
FLAG -1184 304 Vee
FLAG 128 272 Vee
SYMBOL Opamps\\AD8039 128 112 R0
SYMATTR InstName U1
SYMBOL cap 240 64 R90
WINDOW 0 0 32 VBottom 2
WINDOW 3 32 32 VTop 2
SYMATTR InstName C1
SYMATTR Value 10µ
SYMBOL voltage -576 208 R0
WINDOW 3 -415 -60 Left 2
WINDOW 123 0 0 Left 0
WINDOW 39 0 0 Left 0
SYMATTR InstName V2
SYMATTR Value PULSE(0 -2m 0.5u 100p 100p 2u 4u 100)
SYMBOL voltage -1184 480 R180
WINDOW 123 0 0 Left 0
WINDOW 39 0 0 Left 0
SYMATTR InstName V3
SYMATTR Value 8
SYMBOL res 256 -32 R90
WINDOW 0 0 56 VBottom 2
WINDOW 3 32 56 VTop 2
SYMATTR InstName R1
SYMATTR Value 1000k
SYMBOL res -64 144 R90
WINDOW 0 0 56 VBottom 2
WINDOW 3 32 56 VTop 2
SYMATTR InstName R2
SYMATTR Value 0
SYMBOL voltage -1312 368 R0
WINDOW 123 0 0 Left 0
WINDOW 39 0 0 Left 0
SYMATTR InstName V4
SYMATTR Value 8
SYMBOL cap -320 240 R0
SYMATTR InstName C2
SYMATTR Value 200p
TEXT -1354 560 Left 2 !.tran 40u startup
