Version 4
SHEET 1 1048 1264
WIRE 160 -16 64 -16
WIRE 272 -16 240 -16
WIRE 176 80 64 80
WIRE 272 80 272 -16
WIRE 272 80 240 80
WIRE 128 144 128 -96
WIRE -240 160 -352 160
WIRE -176 160 -240 160
WIRE 64 160 64 80
WIRE 64 160 -96 160
WIRE 96 160 64 160
WIRE 272 176 272 80
WIRE 272 176 160 176
WIRE 336 176 272 176
WIRE 96 192 32 192
WIRE -352 224 -352 160
WIRE -240 240 -240 160
WIRE 32 240 32 192
WIRE 128 272 128 208
WIRE -352 352 -352 304
WIRE -240 352 -240 304
WIRE -960 736 -960 656
WIRE -832 736 -832 656
WIRE -960 864 -960 816
WIRE -832 864 -832 816
FLAG -352 352 0
FLAG 336 176 ChargeAmplifierOutput
FLAG 32 240 0
FLAG -960 864 0
FLAG -240 352 0
FLAG -832 864 0
FLAG -960 656 Vcc
FLAG 128 -96 Vcc
FLAG -832 656 Vee
FLAG 128 272 Vee
SYMBOL cap 240 64 R90
WINDOW 0 0 32 VBottom 2
WINDOW 3 32 32 VTop 2
SYMATTR InstName C1
SYMATTR Value 130p
SYMBOL voltage -832 832 R180
WINDOW 123 0 0 Left 0
WINDOW 39 0 0 Left 0
SYMATTR InstName V3
SYMATTR Value 8
SYMBOL voltage -960 720 R0
WINDOW 123 0 0 Left 0
WINDOW 39 0 0 Left 0
SYMATTR InstName V4
SYMATTR Value 8
SYMBOL cap -256 240 R0
SYMATTR InstName C2
SYMATTR Value 100p
SYMBOL res 256 -32 R90
WINDOW 0 0 56 VBottom 2
WINDOW 3 32 56 VTop 2
SYMATTR InstName R10
SYMATTR Value 100k
SYMBOL Opamps\\OP177A 128 112 R0
SYMATTR InstName U2
SYMBOL res -80 144 R90
WINDOW 0 0 56 VBottom 2
WINDOW 3 32 56 VTop 2
SYMATTR InstName R2
SYMATTR Value 1R
SYMBOL current -352 224 R0
WINDOW 3 -277 177 Left 2
WINDOW 123 -279 149 Left 2
WINDOW 39 0 0 Left 0
SYMATTR InstName I1
SYMATTR Value PULSE(0 1u 0 1e-6 1e-6 1e-4 3u)
TEXT -1000 912 Left 2 !.tran 1000u startup
