Version 4
SHEET 1 1664 4020
WIRE -1648 1952 -1744 1952
WIRE -1472 1952 -1568 1952
WIRE -768 1952 -1472 1952
WIRE -672 1952 -768 1952
WIRE -768 2000 -768 1952
WIRE -1744 2032 -1744 1952
WIRE -1472 2176 -1472 1952
WIRE -1104 2192 -1104 2176
WIRE -1024 2208 -1072 2208
WIRE -1376 2224 -1408 2224
WIRE -1328 2224 -1376 2224
WIRE -1136 2224 -1248 2224
WIRE -1744 2240 -1744 2112
WIRE -912 2240 -1072 2240
WIRE -768 2240 -768 2080
WIRE -768 2240 -832 2240
WIRE -1424 2256 -1424 2224
WIRE -1104 2272 -1104 2256
WIRE -1376 2320 -1376 2224
WIRE -1024 2320 -1024 2208
WIRE -768 2336 -768 2240
WIRE -1744 2512 -1744 2320
WIRE -1472 2512 -1472 2272
WIRE -1376 2512 -1376 2400
WIRE -1024 2512 -1024 2400
WIRE -768 2512 -768 2416
WIRE -704 2512 -704 2272
WIRE -1280 2864 -1280 2832
WIRE -1280 2976 -1280 2944
WIRE -1104 2976 -1104 2832
FLAG -672 1952 out
IOPIN -672 1952 Out
FLAG -1280 2976 0
FLAG -1280 2832 Vcc
FLAG -1104 2976 0
FLAG -1104 2832 Vee
FLAG -1744 2512 0
FLAG -768 2512 0
FLAG -1376 2512 0
FLAG -1472 2512 0
FLAG -1104 2176 Vcc
FLAG -1104 2272 Vee
FLAG -1024 2512 0
FLAG -704 2512 0
SYMBOL voltage -1536 2864 R0
WINDOW 123 0 0 Left 0
WINDOW 39 0 0 Left 0
WINDOW 3 49 57 Left 2
WINDOW 0 54 26 Left 2
SYMATTR Value 1600
SYMATTR InstName V4
SYMBOL voltage -1520 3024 R0
WINDOW 123 0 0 Left 0
WINDOW 39 0 0 Left 0
WINDOW 3 465 58 Right 2
WINDOW 0 50 27 Left 2
SYMATTR Value PULSE(-80 80 0 1m 1m 4e-3 7e-3 0)
SYMATTR InstName V7
SYMBOL voltage -1280 2848 R0
WINDOW 123 0 0 Left 0
WINDOW 39 0 0 Left 0
WINDOW 3 49 52 Left 2
WINDOW 0 48 20 Left 2
SYMATTR Value 12
SYMATTR InstName V2
SYMBOL voltage -944 2960 R180
WINDOW 123 0 0 Left 0
WINDOW 39 0 0 Left 0
WINDOW 3 -68 53 Left 2
WINDOW 0 -67 83 Left 2
SYMATTR Value -12
SYMATTR InstName V3
SYMBOL voltage -1744 2016 R0
WINDOW 123 0 0 Left 0
WINDOW 39 0 0 Left 0
WINDOW 3 -45 70 Right 2
WINDOW 0 -226 44 Left 2
SYMATTR Value PULSE(0 50 0 500u 500u 4e-3 7e-3 0)
SYMATTR InstName V8
SYMBOL res -752 2096 R180
WINDOW 0 36 76 Left 2
WINDOW 3 36 40 Left 2
SYMATTR InstName R2
SYMATTR Value 1e3
SYMBOL res -752 2432 R180
WINDOW 0 36 76 Left 2
WINDOW 3 36 40 Left 2
SYMATTR InstName R8
SYMATTR Value 25.641
SYMBOL voltage -1744 2224 R0
WINDOW 123 0 0 Left 0
WINDOW 39 0 0 Left 0
WINDOW 3 50 64 Left 2
WINDOW 0 52 36 Left 2
SYMATTR Value 220
SYMATTR InstName V9
SYMBOL res -1664 1968 R270
WINDOW 0 32 56 VTop 2
WINDOW 3 0 56 VBottom 2
SYMATTR InstName R9
SYMATTR Value 100
SYMBOL npn -1408 2176 M0
SYMATTR InstName Q3
SYMBOL res -1392 2304 R0
SYMATTR InstName R11
SYMATTR Value 22k
SYMBOL voltage -1024 2304 R0
WINDOW 123 0 0 Left 0
WINDOW 39 0 0 Left 0
WINDOW 3 50 64 Left 2
WINDOW 0 52 36 Left 2
SYMATTR Value 5
SYMATTR InstName V5
SYMBOL res -1232 2208 R90
WINDOW 0 0 56 VBottom 2
WINDOW 3 32 56 VTop 2
SYMATTR InstName R10
SYMATTR Value 2k
SYMBOL res -928 2256 R270
WINDOW 0 32 56 VTop 2
WINDOW 3 0 56 VBottom 2
SYMATTR InstName R12
SYMATTR Value 1e2
SYMBOL Opamps\\LTC6079 -1104 2224 M0
SYMATTR InstName U1
SYMBOL cap -720 2208 R0
SYMATTR InstName C1
SYMATTR Value 10n
TEXT -1632 2824 Left 2 !.tran 0 15mS 1m 1uS
TEXT -2144 2232 Left 2 ;Winding for voltage stabilization\n(paraller stabilizer 0-200V)
TEXT -1832 2904 Left 2 ;Multiple vindings for\nactuall power supply.
TEXT -1704 3120 Left 2 ;Simulated variation in voltage\ndue to imperfection of DC/DC converter.
TEXT -2160 1976 Left 2 ;Simulated variation in voltage\ndue to imperfection of DC/DC converter.
