Version 4
SHEET 1 1664 4020
WIRE -512 688 -1232 688
WIRE -368 688 -512 688
WIRE -1232 720 -1232 688
WIRE -1232 864 -1232 800
WIRE -1232 960 -1232 944
WIRE -512 960 -512 688
WIRE -1232 1056 -1232 1040
WIRE -1232 1152 -1232 1136
WIRE -1376 1312 -1424 1312
WIRE -1232 1312 -1232 1232
WIRE -1232 1312 -1296 1312
WIRE -1232 1424 -1232 1312
WIRE -1424 1440 -1424 1312
WIRE -864 1440 -864 1424
WIRE -784 1456 -832 1456
WIRE -1136 1472 -1168 1472
WIRE -1088 1472 -1136 1472
WIRE -896 1472 -1008 1472
WIRE -512 1488 -512 1040
WIRE -512 1488 -832 1488
WIRE -1184 1504 -1184 1472
WIRE -864 1520 -864 1504
WIRE -1232 1568 -1232 1520
WIRE -1136 1568 -1136 1472
WIRE -784 1568 -784 1456
WIRE -512 1568 -512 1488
WIRE -1424 1696 -1424 1520
WIRE -1232 1696 -1232 1648
WIRE -1136 1696 -1136 1648
WIRE -784 1696 -784 1648
WIRE -512 1696 -512 1648
WIRE -1360 1808 -1456 1808
WIRE -1184 1808 -1280 1808
WIRE -480 1808 -1184 1808
WIRE -384 1808 -480 1808
WIRE -480 1856 -480 1808
WIRE -1456 1888 -1456 1808
WIRE -1184 2032 -1184 1808
WIRE -816 2048 -816 2032
WIRE -736 2064 -784 2064
WIRE -1088 2080 -1120 2080
WIRE -1040 2080 -1088 2080
WIRE -848 2080 -960 2080
WIRE -1456 2096 -1456 1968
WIRE -624 2096 -784 2096
WIRE -480 2096 -480 1936
WIRE -480 2096 -544 2096
WIRE -1136 2112 -1136 2080
WIRE -816 2128 -816 2112
WIRE -1088 2176 -1088 2080
WIRE -736 2176 -736 2064
WIRE -480 2192 -480 2096
WIRE -1904 2256 -1904 2224
WIRE -1728 2256 -1728 2224
WIRE -1904 2368 -1904 2336
WIRE -1728 2368 -1728 2336
WIRE -1456 2368 -1456 2176
WIRE -1184 2368 -1184 2128
WIRE -1088 2368 -1088 2256
WIRE -736 2368 -736 2256
WIRE -480 2368 -480 2272
FLAG -1904 2368 0
FLAG -1904 2224 Vcc
FLAG -1728 2368 0
FLAG -1728 2224 Vee
FLAG -1456 2368 0
FLAG -480 2368 0
FLAG -1088 2368 0
FLAG -1184 2368 0
FLAG -816 2032 Vcc
FLAG -816 2128 Vee
FLAG -736 2368 0
FLAG -1424 1696 0
FLAG -1136 1696 0
FLAG -1232 1696 0
FLAG -864 1424 Vcc
FLAG -864 1520 Vee
FLAG -784 1696 0
FLAG -368 688 out
IOPIN -368 688 Out
FLAG -512 1696 0
SYMBOL voltage -1904 2240 R0
WINDOW 123 0 0 Left 0
WINDOW 39 0 0 Left 0
WINDOW 3 49 52 Left 2
WINDOW 0 48 20 Left 2
SYMATTR Value 12
SYMATTR InstName V2
SYMBOL voltage -1456 1872 R0
WINDOW 123 0 0 Left 0
WINDOW 39 0 0 Left 0
WINDOW 3 -45 70 Right 2
WINDOW 0 -226 44 Left 2
SYMATTR Value PULSE(0 50 0 500u 500u 4e-3 7e-3 0)
SYMATTR InstName V8
SYMBOL res -464 1952 R180
WINDOW 0 36 76 Left 2
WINDOW 3 36 40 Left 2
SYMATTR InstName R2
SYMATTR Value 1e3
SYMBOL res -464 2288 R180
WINDOW 0 36 76 Left 2
WINDOW 3 36 40 Left 2
SYMATTR InstName R8
SYMATTR Value 25.641
SYMBOL voltage -1456 2080 R0
WINDOW 123 0 0 Left 0
WINDOW 39 0 0 Left 0
WINDOW 3 50 64 Left 2
WINDOW 0 52 36 Left 2
SYMATTR Value 220
SYMATTR InstName V9
SYMBOL res -1376 1824 R270
WINDOW 0 32 56 VTop 2
WINDOW 3 0 56 VBottom 2
SYMATTR InstName R9
SYMATTR Value 100
SYMBOL npn -1120 2032 M0
SYMATTR InstName Q3
SYMBOL res -1104 2160 R0
SYMATTR InstName R11
SYMATTR Value 22k
SYMBOL voltage -736 2160 R0
WINDOW 123 0 0 Left 0
WINDOW 39 0 0 Left 0
WINDOW 3 50 64 Left 2
WINDOW 0 52 36 Left 2
SYMATTR Value 5
SYMATTR InstName V5
SYMBOL res -944 2064 R90
WINDOW 0 0 56 VBottom 2
WINDOW 3 32 56 VTop 2
SYMATTR InstName R10
SYMATTR Value 2k
SYMBOL res -640 2112 R270
WINDOW 0 32 56 VTop 2
WINDOW 3 0 56 VBottom 2
SYMATTR InstName R12
SYMATTR Value 1e2
SYMBOL Opamps\\LTC6079 -816 2080 M0
SYMATTR InstName U1
SYMBOL voltage -1424 1424 R0
WINDOW 123 0 0 Left 0
WINDOW 39 0 0 Left 0
WINDOW 3 50 64 Left 2
WINDOW 0 52 36 Left 2
SYMATTR Value 200
SYMATTR InstName V6
SYMBOL res -1392 1328 R270
WINDOW 0 32 56 VTop 2
WINDOW 3 0 56 VBottom 2
SYMATTR InstName R4
SYMATTR Value 100
SYMBOL res -1152 1552 R0
SYMATTR InstName R5
SYMATTR Value 22k
SYMBOL voltage -784 1552 R0
WINDOW 123 0 0 Left 0
WINDOW 39 0 0 Left 0
WINDOW 3 50 64 Left 2
WINDOW 0 52 36 Left 2
SYMATTR Value 5
SYMATTR InstName V10
SYMBOL res -992 1456 R90
WINDOW 0 0 56 VBottom 2
WINDOW 3 32 56 VTop 2
SYMATTR InstName R6
SYMATTR Value 1k
SYMBOL Opamps\\LTC6079 -864 1472 M0
SYMATTR InstName U2
SYMBOL voltage -1232 1136 R0
WINDOW 123 0 0 Left 0
WINDOW 39 0 0 Left 0
WINDOW 3 50 64 Left 2
WINDOW 0 52 36 Left 2
SYMATTR Value 375
SYMATTR InstName V11
SYMBOL voltage -1232 1040 R0
WINDOW 123 0 0 Left 0
WINDOW 39 0 0 Left 0
WINDOW 3 50 64 Left 2
WINDOW 0 52 36 Left 2
SYMATTR Value 375
SYMATTR InstName V12
SYMBOL voltage -1232 944 R0
WINDOW 123 0 0 Left 0
WINDOW 39 0 0 Left 0
WINDOW 3 50 64 Left 2
WINDOW 0 52 36 Left 2
SYMATTR Value 375
SYMATTR InstName V13
SYMBOL voltage -1232 848 R0
WINDOW 123 0 0 Left 0
WINDOW 39 0 0 Left 0
WINDOW 3 50 64 Left 2
WINDOW 0 52 36 Left 2
SYMATTR Value 275
SYMATTR InstName V14
SYMBOL voltage -1232 704 R0
WINDOW 123 0 0 Left 0
WINDOW 39 0 0 Left 0
WINDOW 3 506 67 Right 2
WINDOW 0 63 31 Left 2
SYMATTR Value PULSE(0 -50 0 500u 500u 4e-3 7e-3 0)
SYMATTR InstName V15
SYMBOL res -496 1056 R180
WINDOW 0 36 76 Left 2
WINDOW 3 36 40 Left 2
SYMATTR InstName R13
SYMATTR Value 1e6
SYMBOL res -496 1664 R180
WINDOW 0 36 76 Left 2
WINDOW 3 36 40 Left 2
SYMATTR InstName R14
SYMATTR Value 3344.482
SYMBOL res -1248 1552 R0
SYMATTR InstName R1
SYMATTR Value 0.01
SYMBOL voltage -1728 2352 R180
WINDOW 123 0 0 Left 0
WINDOW 39 0 0 Left 0
WINDOW 3 49 52 Left 2
WINDOW 0 48 20 Left 2
SYMATTR Value 12
SYMATTR InstName V7
SYMBOL npn -1168 1424 M0
SYMATTR InstName Q1
TEXT -1928 2416 Left 2 !.tran 0 15mS 1m 1uS
TEXT -1856 2088 Left 2 ;Winding for voltage stabilization\n(paraller stabilizer 0-200V)
TEXT -1872 1832 Left 2 ;Simulated variation in voltage\ndue to imperfection of DC/DC converter.
TEXT -1904 1592 Left 2 ;Winding for voltage stabilization\n(uing paraller stabilizer)
TEXT -1728 1032 Left 2 ;Power supply from "normal" windings\n3*375V + 275V = 1400V.
TEXT -1768 744 Left 2 ;Simulated variation in voltage\ndue to imperfection of DC/DC converter.
TEXT -488 1464 Left 2 ;5V
