Version 4
SHEET 1 1664 3068
WIRE -800 2064 -1504 2064
WIRE -720 2064 -800 2064
WIRE -1504 2112 -1504 2064
WIRE -800 2112 -800 2064
WIRE -1504 2224 -1504 2192
WIRE -800 2288 -800 2192
WIRE -800 2288 -1024 2288
WIRE -1696 2400 -1776 2400
WIRE -1504 2400 -1504 2304
WIRE -1504 2400 -1616 2400
WIRE -1120 2416 -1120 2400
WIRE -1504 2432 -1504 2400
WIRE -1024 2432 -1024 2288
WIRE -1024 2432 -1088 2432
WIRE -1152 2448 -1232 2448
WIRE -800 2448 -800 2288
WIRE -1776 2464 -1776 2400
WIRE -1024 2464 -1088 2464
WIRE -1408 2480 -1440 2480
WIRE -1360 2480 -1408 2480
WIRE -1232 2480 -1232 2448
WIRE -1232 2480 -1280 2480
WIRE -1120 2496 -1120 2480
WIRE -1408 2512 -1408 2480
WIRE -1024 2528 -1024 2464
WIRE -1776 2624 -1776 2544
WIRE -1504 2624 -1504 2528
WIRE -1408 2624 -1408 2592
WIRE -1024 2624 -1024 2608
WIRE -800 2624 -800 2528
WIRE -1712 2816 -1712 2784
WIRE -1536 2816 -1536 2784
WIRE -1712 2928 -1712 2896
WIRE -1536 2928 -1536 2896
FLAG -1776 2624 0
FLAG -720 2064 out
IOPIN -720 2064 Out
FLAG -800 2624 0
FLAG -1408 2624 0
FLAG -1504 2624 0
FLAG -1712 2928 0
FLAG -1712 2784 Vcc
FLAG -1120 2400 Vcc
FLAG -1120 2496 Vee
FLAG -1536 2928 0
FLAG -1536 2784 Vee
FLAG -1024 2624 0
SYMBOL voltage -1504 2208 R0
WINDOW 123 0 0 Left 0
WINDOW 39 0 0 Left 0
WINDOW 3 49 57 Left 2
WINDOW 0 54 26 Left 2
SYMATTR Value 1300
SYMATTR InstName V4
SYMBOL voltage -1504 2096 R0
WINDOW 123 0 0 Left 0
WINDOW 39 0 0 Left 0
WINDOW 3 439 47 Right 2
WINDOW 0 41 20 Left 2
SYMATTR Value PULSE(-50 100 0 1m 1m 3e-3 5e-3 0)
SYMATTR InstName V7
SYMBOL res -784 2208 R180
WINDOW 0 36 76 Left 2
WINDOW 3 36 40 Left 2
SYMATTR InstName R7
SYMATTR Value 3e2
SYMBOL res -784 2544 R180
WINDOW 0 36 76 Left 2
WINDOW 3 36 40 Left 2
SYMATTR InstName R4
SYMATTR Value 5e5
SYMBOL voltage -1776 2448 R0
WINDOW 123 0 0 Left 0
WINDOW 39 0 0 Left 0
WINDOW 3 50 64 Left 2
WINDOW 0 52 36 Left 2
SYMATTR Value 200
SYMATTR InstName V6
SYMBOL res -1712 2416 R270
WINDOW 0 32 56 VTop 2
WINDOW 3 0 56 VBottom 2
SYMATTR InstName R1
SYMATTR Value 100
SYMBOL npn -1440 2432 M0
SYMATTR InstName Q1
SYMBOL res -1376 2496 R270
WINDOW 0 32 56 VTop 2
WINDOW 3 0 56 VBottom 2
SYMATTR InstName R3
SYMATTR Value 1k
SYMBOL res -1424 2496 R0
SYMATTR InstName R5
SYMATTR Value 10k
SYMBOL Opamps\\OP77 -1120 2384 M0
SYMATTR InstName U1
SYMBOL voltage -1712 2800 R0
WINDOW 123 0 0 Left 0
WINDOW 39 0 0 Left 0
WINDOW 3 49 52 Left 2
WINDOW 0 48 20 Left 2
SYMATTR Value 10
SYMATTR InstName V2
SYMBOL voltage -1536 2912 R180
WINDOW 123 0 0 Left 0
WINDOW 39 0 0 Left 0
WINDOW 3 -68 53 Left 2
WINDOW 0 -67 83 Left 2
SYMATTR Value 10
SYMATTR InstName V3
SYMBOL voltage -1024 2512 R0
WINDOW 123 0 0 Left 0
WINDOW 39 0 0 Left 0
WINDOW 3 48 57 Left 2
WINDOW 0 39 24 Left 2
SYMATTR Value 5
SYMATTR InstName V1
TEXT -2016 2936 Left 2 !.tran 0 15mS 1m 1uS
TEXT -2144 2448 Left 2 ;Winding for voltage stabilization\n(paraller stabilizer 0-200V)
TEXT -1776 2248 Left 2 ;Multiple vindings for\nactuall power supply.
TEXT -1984 2144 Left 2 ;Simulated variation in voltage\ndue to imperfection of DC/DC converter.
