Version 4
SHEET 1 1664 4020
WIRE -512 688 -1232 688
WIRE -368 688 -512 688
WIRE -1232 720 -1232 688
WIRE -1232 864 -1232 800
WIRE -1232 960 -1232 944
WIRE -512 960 -512 688
WIRE -1232 1056 -1232 1040
WIRE -1232 1152 -1232 1136
WIRE -1376 1312 -1424 1312
WIRE -1232 1312 -1232 1232
WIRE -1232 1312 -1296 1312
WIRE -1232 1424 -1232 1312
WIRE -1424 1440 -1424 1312
WIRE -864 1440 -864 1424
WIRE -784 1456 -832 1456
WIRE -1136 1472 -1168 1472
WIRE -1088 1472 -1136 1472
WIRE -896 1472 -1008 1472
WIRE -512 1488 -512 1040
WIRE -512 1488 -832 1488
WIRE -1184 1504 -1184 1472
WIRE -864 1520 -864 1504
WIRE -1232 1568 -1232 1520
WIRE -1136 1568 -1136 1472
WIRE -784 1568 -784 1456
WIRE -512 1568 -512 1488
WIRE -1424 1696 -1424 1520
WIRE -1232 1696 -1232 1648
WIRE -1136 1696 -1136 1648
WIRE -784 1696 -784 1648
WIRE -512 1696 -512 1648
WIRE -1200 1888 -1200 1856
WIRE -1024 1888 -1024 1856
WIRE -1200 2000 -1200 1968
WIRE -1024 2000 -1024 1968
FLAG -1200 2000 0
FLAG -1200 1856 Vcc
FLAG -1024 2000 0
FLAG -1024 1856 Vee
FLAG -1424 1696 0
FLAG -1136 1696 0
FLAG -1232 1696 0
FLAG -864 1424 Vcc
FLAG -864 1520 Vee
FLAG -784 1696 0
FLAG -368 688 out
IOPIN -368 688 Out
FLAG -512 1696 0
SYMBOL voltage -1200 1872 R0
WINDOW 123 0 0 Left 0
WINDOW 39 0 0 Left 0
WINDOW 3 49 52 Left 2
WINDOW 0 48 20 Left 2
SYMATTR Value 12
SYMATTR InstName V2
SYMBOL voltage -1424 1424 R0
WINDOW 123 0 0 Left 0
WINDOW 39 0 0 Left 0
WINDOW 3 50 64 Left 2
WINDOW 0 52 36 Left 2
SYMATTR Value 200
SYMATTR InstName V6
SYMBOL res -1392 1328 R270
WINDOW 0 32 56 VTop 2
WINDOW 3 0 56 VBottom 2
SYMATTR InstName R4
SYMATTR Value 100
SYMBOL res -1152 1552 R0
SYMATTR InstName R5
SYMATTR Value 22k
SYMBOL voltage -784 1552 R0
WINDOW 123 0 0 Left 0
WINDOW 39 0 0 Left 0
WINDOW 3 50 64 Left 2
WINDOW 0 52 36 Left 2
SYMATTR Value 5
SYMATTR InstName V10
SYMBOL res -992 1456 R90
WINDOW 0 0 56 VBottom 2
WINDOW 3 32 56 VTop 2
SYMATTR InstName R6
SYMATTR Value 1k
SYMBOL Opamps\\LTC6079 -752 1248 M0
SYMATTR InstName U2
SYMBOL voltage -1232 1136 R0
WINDOW 123 0 0 Left 0
WINDOW 39 0 0 Left 0
WINDOW 3 50 64 Left 2
WINDOW 0 52 36 Left 2
SYMATTR Value 375
SYMATTR InstName V11
SYMBOL voltage -1232 1040 R0
WINDOW 123 0 0 Left 0
WINDOW 39 0 0 Left 0
WINDOW 3 50 64 Left 2
WINDOW 0 52 36 Left 2
SYMATTR Value 375
SYMATTR InstName V12
SYMBOL voltage -1232 944 R0
WINDOW 123 0 0 Left 0
WINDOW 39 0 0 Left 0
WINDOW 3 50 64 Left 2
WINDOW 0 52 36 Left 2
SYMATTR Value 375
SYMATTR InstName V13
SYMBOL voltage -1232 848 R0
WINDOW 123 0 0 Left 0
WINDOW 39 0 0 Left 0
WINDOW 3 50 64 Left 2
WINDOW 0 52 36 Left 2
SYMATTR Value 275
SYMATTR InstName V14
SYMBOL voltage -1232 704 R0
WINDOW 123 0 0 Left 0
WINDOW 39 0 0 Left 0
WINDOW 3 506 67 Right 2
WINDOW 0 63 31 Left 2
SYMATTR Value PULSE(0 -50 0 500u 500u 4e-3 7e-3 0)
SYMATTR InstName V15
SYMBOL res -496 1056 R180
WINDOW 0 36 76 Left 2
WINDOW 3 36 40 Left 2
SYMATTR InstName R13
SYMATTR Value 1e7
SYMBOL res -496 1664 R180
WINDOW 0 36 76 Left 2
WINDOW 3 36 40 Left 2
SYMATTR InstName R14
SYMATTR Value 33444.82
SYMBOL res -1248 1552 R0
SYMATTR InstName R1
SYMATTR Value 0.01
SYMBOL voltage -1024 1984 R180
WINDOW 123 0 0 Left 0
WINDOW 39 0 0 Left 0
WINDOW 3 49 52 Left 2
WINDOW 0 48 20 Left 2
SYMATTR Value 12
SYMATTR InstName V7
SYMBOL npn -1168 1424 M0
SYMATTR InstName Q1
SYMBOL Opamps\\RH1498 -992 1200 M0
SYMATTR InstName U1
SYMBOL Opamps\\OP284 -640 1248 M0
SYMATTR InstName U3
SYMBOL Opamps\\LTC2054 -832 1136 M0
SYMATTR InstName U4
SYMBOL Opamps\\LT6016 -864 1472 M0
SYMATTR InstName U5
TEXT -944 1864 Left 2 !.tran 0 15mS 1m 1uS
TEXT -1848 1448 Left 2 ;Winding for voltage stabilization\n(uing paraller stabilizer)
TEXT -1728 1032 Left 2 ;Power supply from "normal" windings\n3*375V + 275V = 1400V.
TEXT -1768 744 Left 2 ;Simulated variation in voltage\ndue to imperfection of DC/DC converter.
TEXT -488 1464 Left 2 ;5V
TEXT -952 1912 Left 2 !.inc TLC27M2.5_2
