Version 4
SHEET 1 1880 2280
WIRE 64 -112 -16 -112
WIRE 272 -112 144 -112
WIRE -416 -32 -544 -32
WIRE -16 -16 -16 -112
WIRE 80 -16 -16 -16
WIRE 272 -16 272 -112
WIRE 272 -16 144 -16
WIRE -416 16 -416 -32
WIRE -256 64 -272 64
WIRE -160 64 -176 64
WIRE 224 80 80 80
WIRE 400 96 384 96
WIRE 512 96 480 96
WIRE 800 96 656 96
WIRE 80 112 80 80
WIRE 752 112 592 112
WIRE 656 144 656 96
WIRE -416 160 -416 96
WIRE -384 160 -416 160
WIRE -272 160 -272 64
WIRE -272 160 -320 160
WIRE -256 160 -272 160
WIRE -160 160 -160 64
WIRE -160 160 -192 160
WIRE -128 160 -160 160
WIRE -16 160 -16 -16
WIRE -16 160 -48 160
WIRE 48 160 -16 160
WIRE 592 160 592 112
WIRE 624 160 592 160
WIRE 752 176 752 112
WIRE 752 176 688 176
WIRE 928 176 752 176
WIRE -544 192 -544 -32
WIRE -416 192 -416 160
WIRE 272 192 272 -16
WIRE 272 192 192 192
WIRE 320 192 320 80
WIRE 320 192 272 192
WIRE 384 192 384 96
WIRE 384 192 320 192
WIRE 400 192 384 192
WIRE 512 192 512 96
WIRE 512 192 464 192
WIRE 624 192 512 192
WIRE 48 224 -16 224
WIRE 512 224 512 192
WIRE -16 288 -16 224
WIRE 656 288 656 208
WIRE 800 288 800 96
WIRE -544 304 -544 272
WIRE -416 304 -416 272
WIRE 80 336 80 272
WIRE 224 336 224 80
WIRE 512 352 512 304
WIRE 928 416 928 176
WIRE 928 416 368 416
WIRE -320 512 -320 480
WIRE -192 512 -192 480
WIRE 864 560 576 560
WIRE 1040 560 944 560
WIRE 1504 576 1216 576
WIRE 1680 576 1584 576
WIRE -320 640 -320 592
WIRE -192 640 -192 592
WIRE 864 656 736 656
WIRE 1040 656 1040 560
WIRE 1040 656 928 656
WIRE 1504 672 1376 672
WIRE 1680 672 1680 576
WIRE 1680 672 1568 672
WIRE 992 736 848 736
WIRE 1632 752 1488 752
WIRE 848 800 848 736
WIRE 368 816 368 416
WIRE 464 816 368 816
WIRE 576 816 576 560
WIRE 576 816 544 816
WIRE 608 816 576 816
WIRE 736 816 736 656
WIRE 736 816 688 816
WIRE 816 816 736 816
WIRE 1488 816 1488 752
WIRE 1040 832 1040 656
WIRE 1040 832 880 832
WIRE 1104 832 1040 832
WIRE 1216 832 1216 576
WIRE 1216 832 1184 832
WIRE 1248 832 1216 832
WIRE 1376 832 1376 672
WIRE 1376 832 1328 832
WIRE 1456 832 1376 832
WIRE 816 848 784 848
WIRE 1680 848 1680 672
WIRE 1680 848 1520 848
WIRE 1728 848 1680 848
WIRE 576 864 576 816
WIRE 1456 864 1424 864
WIRE 784 880 784 848
WIRE 784 880 656 880
WIRE 1216 880 1216 832
WIRE 1424 896 1424 864
WIRE 1424 896 1296 896
WIRE 656 928 656 880
WIRE 784 944 784 880
WIRE 1296 944 1296 896
WIRE 576 960 576 928
WIRE 1424 960 1424 896
WIRE 1216 976 1216 944
WIRE 848 992 848 864
WIRE 992 992 992 736
WIRE 1488 1008 1488 880
WIRE 1632 1008 1632 752
WIRE 656 1056 656 1008
WIRE 784 1056 784 1008
WIRE 1296 1072 1296 1024
WIRE 1424 1072 1424 1024
FLAG 320 80 1st_charge_amp_out
FLAG -192 640 0
FLAG -320 480 Vcc
FLAG 224 336 Vcc
FLAG -192 480 Vee
FLAG 80 336 Vee
FLAG -320 640 0
FLAG -16 288 0
FLAG -416 304 0
FLAG -544 304 0
FLAG 1728 848 output
IOPIN 1728 848 Out
FLAG 512 352 0
FLAG 1632 1008 Vcc
FLAG 1488 1008 Vee
FLAG 1216 976 0
FLAG 1296 1072 0
FLAG 1424 1072 0
FLAG 992 992 Vcc
FLAG 848 992 Vee
FLAG 576 960 0
FLAG 656 1056 0
FLAG 784 1056 0
FLAG 800 288 Vcc
FLAG 656 288 Vee
SYMBOL cap 144 -32 R90
WINDOW 0 0 32 VBottom 2
WINDOW 3 32 32 VTop 2
SYMATTR InstName Cf
SYMATTR Value 300p
SYMBOL voltage -192 608 R180
WINDOW 123 0 0 Left 0
WINDOW 39 0 0 Left 0
SYMATTR InstName V3
SYMATTR Value 2
SYMBOL voltage -320 496 R0
WINDOW 123 0 0 Left 0
WINDOW 39 0 0 Left 0
SYMATTR InstName V4
SYMATTR Value 2
SYMBOL cap -192 144 R90
WINDOW 0 0 32 VBottom 2
WINDOW 3 32 32 VTop 2
SYMATTR InstName C4
SYMATTR Value 150p
SYMBOL Opamps\\LTC6269 80 192 R0
SYMATTR InstName U1
SYMBOL current -416 192 R0
WINDOW 0 15 107 Left 2
WINDOW 3 -86 170 Left 2
WINDOW 123 14 76 Left 2
WINDOW 39 0 0 Left 2
SYMATTR InstName I1
SYMATTR Value PULSE(0 400u 1mS 300n 2u 100n 3m 8)
SYMATTR Value2 AC 1
SYMBOL res 48 -96 R270
WINDOW 0 32 56 VTop 2
WINDOW 3 0 56 VBottom 2
SYMATTR InstName Rf
SYMATTR Value 10e5
SYMBOL cap 400 208 R270
WINDOW 0 32 32 VTop 2
WINDOW 3 0 32 VBottom 2
SYMATTR InstName C3
SYMATTR Value {Czero}
SYMBOL res 384 112 R270
WINDOW 0 32 56 VTop 2
WINDOW 3 0 56 VBottom 2
SYMATTR InstName R4
SYMATTR Value {Rzero}
SYMBOL voltage -544 176 R0
WINDOW 123 0 0 Left 0
WINDOW 39 0 0 Left 0
SYMATTR InstName V1
SYMATTR Value 1500
SYMBOL res -432 0 R0
SYMATTR InstName Rf1
SYMATTR Value 2e8
SYMBOL res -144 176 R270
WINDOW 0 32 56 VTop 2
WINDOW 3 0 56 VBottom 2
SYMATTR InstName Rf2
SYMATTR Value 1
SYMBOL res -272 80 R270
WINDOW 0 32 56 VTop 2
WINDOW 3 0 56 VBottom 2
SYMATTR InstName Rf3
SYMATTR Value 1e6
SYMBOL cap -320 144 R90
WINDOW 0 0 32 VBottom 2
WINDOW 3 32 32 VTop 2
SYMATTR InstName C6
SYMATTR Value 150n
SYMBOL res 496 208 R0
SYMATTR InstName R2
SYMATTR Value 100k
SYMBOL voltage -96 976 R0
WINDOW 123 0 0 Left 0
WINDOW 39 0 0 Left 0
SYMATTR InstName V2
SYMATTR Value {VirtualGND}
SYMBOL res 1088 848 R270
WINDOW 0 32 56 VTop 2
WINDOW 3 0 56 VBottom 2
SYMATTR InstName R6
SYMATTR Value 3k9
SYMBOL cap 1232 944 R180
WINDOW 0 24 56 Left 2
WINDOW 3 24 8 Left 2
SYMATTR InstName C5
SYMATTR Value 33n
SYMBOL res 1232 848 R270
WINDOW 0 32 56 VTop 2
WINDOW 3 0 56 VBottom 2
SYMATTR InstName R7
SYMATTR Value 5k6
SYMBOL res 1488 592 R270
WINDOW 0 32 56 VTop 2
WINDOW 3 0 56 VBottom 2
SYMATTR InstName R9
SYMATTR Value 3k9
SYMBOL cap 1504 688 R270
WINDOW 0 32 32 VTop 2
WINDOW 3 0 32 VBottom 2
SYMATTR InstName C8
SYMATTR Value 10n
SYMBOL res 1280 928 R0
SYMATTR InstName R10
SYMATTR Value 3k9
SYMBOL cap 1440 1024 R180
WINDOW 0 24 56 Left 2
WINDOW 3 24 8 Left 2
SYMATTR InstName C9
SYMATTR Value 33n
SYMBOL TLC27M2 1488 784 R0
WINDOW 3 18 126 Left 2
SYMATTR InstName U4
SYMBOL res 448 832 R270
WINDOW 0 32 56 VTop 2
WINDOW 3 0 56 VBottom 2
SYMATTR InstName R1
SYMATTR Value 3k9
SYMBOL cap 592 928 R180
WINDOW 0 24 56 Left 2
WINDOW 3 24 8 Left 2
SYMATTR InstName C1
SYMATTR Value 33n
SYMBOL res 592 832 R270
WINDOW 0 32 56 VTop 2
WINDOW 3 0 56 VBottom 2
SYMATTR InstName R3
SYMATTR Value 5k6
SYMBOL res 848 576 R270
WINDOW 0 32 56 VTop 2
WINDOW 3 0 56 VBottom 2
SYMATTR InstName R5
SYMATTR Value 3k9
SYMBOL cap 864 672 R270
WINDOW 0 32 32 VTop 2
WINDOW 3 0 32 VBottom 2
SYMATTR InstName C2
SYMATTR Value 10n
SYMBOL res 640 912 R0
SYMATTR InstName R8
SYMATTR Value 3k9
SYMBOL cap 800 1008 R180
WINDOW 0 24 56 Left 2
WINDOW 3 24 8 Left 2
SYMATTR InstName C7
SYMATTR Value 33n
SYMBOL TLC27M2 848 768 R0
WINDOW 3 18 126 Left 2
SYMATTR InstName U2
SYMBOL TLC27M2 656 112 R0
WINDOW 3 18 126 Left 2
SYMATTR InstName U5
TEXT -648 456 Left 2 !.tran 0 25mS 0 1uS
TEXT -104 496 Left 2 ;.step param R list 1e3 1e4 1e5
TEXT -656 704 Left 2 !.param VirtualGND=0
TEXT -648 488 Left 2 !.options method=gear\n.options trtol=10
TEXT -104 624 Left 2 ;Rf * Cf >> PMT pulse time
TEXT -656 584 Left 2 !.param Rf=1e5
TEXT -656 616 Left 2 !.param Rzero=60e5
TEXT -104 552 Left 2 ;Rzero=Rf*N\nCzero=Cf/N
TEXT -656 648 Left 2 !.param Czero=50p
TEXT -656 760 Left 2 !.inc TLC27M2.5_2
