Version 4
SHEET 1 1428 1716
WIRE -32 -528 -32 -560
WIRE 240 -480 240 -560
WIRE -128 -464 -208 -464
WIRE -128 -432 -128 -464
WIRE -32 -416 -32 -448
WIRE -32 -416 -96 -416
WIRE 320 -416 288 -416
WIRE -464 -400 -464 -432
WIRE -352 -400 -464 -400
WIRE -320 -400 -352 -400
WIRE -160 -400 -256 -400
WIRE 80 -384 -96 -384
WIRE 112 -384 80 -384
WIRE 240 -384 192 -384
WIRE -352 -368 -352 -400
WIRE -32 -352 -32 -416
WIRE 80 -352 80 -384
WIRE 240 -352 240 -384
WIRE -208 -320 -208 -464
WIRE -128 -320 -128 -368
WIRE -352 -256 -352 -288
WIRE -32 -256 -32 -272
WIRE 80 -256 80 -288
WIRE 240 -256 240 -272
WIRE -464 -192 -464 -400
WIRE 176 -192 -464 -192
WIRE 176 -176 176 -192
WIRE 32 -128 -16 -128
WIRE 144 -128 112 -128
WIRE 272 -128 240 -128
WIRE 816 -112 720 -112
WIRE 1056 -112 896 -112
WIRE -16 -16 -16 -128
WIRE 80 -16 -16 -16
WIRE 272 -16 272 -128
WIRE 272 -16 144 -16
WIRE 720 16 720 -112
WIRE 816 16 720 16
WIRE 1056 16 1056 -112
WIRE 1056 16 880 16
WIRE 224 80 80 80
WIRE 80 112 80 80
WIRE 960 112 816 112
WIRE 816 144 816 112
WIRE -496 160 -608 160
WIRE -384 160 -496 160
WIRE -304 160 -384 160
WIRE -192 160 -304 160
WIRE -112 160 -192 160
WIRE -16 160 -16 -16
WIRE -16 160 -48 160
WIRE 48 160 -16 160
WIRE 272 192 272 -16
WIRE 272 192 192 192
WIRE 320 192 320 -416
WIRE 320 192 272 192
WIRE 400 192 400 96
WIRE 400 192 320 192
WIRE 432 192 400 192
WIRE 544 192 496 192
WIRE 640 192 640 96
WIRE 640 192 544 192
WIRE 720 192 720 16
WIRE 720 192 640 192
WIRE 784 192 720 192
WIRE 544 208 544 192
WIRE -608 224 -608 160
WIRE -496 224 -496 160
WIRE -384 224 -384 160
WIRE 48 224 -16 224
WIRE 1056 224 1056 16
WIRE 1056 224 928 224
WIRE 1184 224 1184 112
WIRE 1184 224 1056 224
WIRE -304 240 -304 160
WIRE -192 240 -192 160
WIRE 784 256 720 256
WIRE -16 288 -16 224
WIRE 544 320 544 288
WIRE 720 320 720 256
WIRE 80 336 80 272
WIRE 224 336 224 80
WIRE -608 352 -608 304
WIRE -496 352 -496 304
WIRE -384 352 -384 304
WIRE -304 352 -304 304
WIRE -192 352 -192 320
WIRE 816 368 816 304
WIRE 960 368 960 112
WIRE -528 592 -528 560
WIRE -400 592 -400 560
WIRE -528 720 -528 672
WIRE -400 720 -400 672
FLAG -384 352 0
FLAG 400 96 1st_charge_amp_out
FLAG -304 352 0
FLAG -400 720 0
FLAG -528 560 Vcc
FLAG 224 336 Vcc
FLAG -400 560 Vee
FLAG 80 336 Vee
FLAG 544 320 0
FLAG 640 96 2nd_charge_amp_in
FLAG -528 720 0
FLAG -496 352 0
FLAG -608 352 0
FLAG -208 -320 Vcc
FLAG -128 -320 Vee
FLAG -32 -256 0
FLAG -32 -560 Vcc
FLAG 80 -256 0
FLAG -464 -432 comparator_out
FLAG 240 -560 Vcc
FLAG 240 -256 0
FLAG -352 -256 0
FLAG -192 352 0
FLAG -16 288 0
FLAG 960 368 Vcc
FLAG 816 368 Vee
FLAG 720 320 0
FLAG 1184 112 2nd_charge_amp_out
SYMBOL cap 144 -32 R90
WINDOW 0 0 32 VBottom 2
WINDOW 3 32 32 VTop 2
SYMATTR InstName C1
SYMATTR Value 6p
SYMBOL voltage -400 688 R180
WINDOW 123 0 0 Left 0
WINDOW 39 0 0 Left 0
SYMATTR InstName V3
SYMATTR Value 8
SYMBOL voltage -528 576 R0
WINDOW 123 0 0 Left 0
WINDOW 39 0 0 Left 0
SYMATTR InstName V4
SYMATTR Value 8
SYMBOL cap -320 240 R0
SYMATTR InstName C2
SYMATTR Value 100p
SYMBOL res -176 336 R180
WINDOW 0 36 76 Left 2
WINDOW 3 36 40 Left 2
SYMATTR InstName R2
SYMATTR Value 1R
SYMBOL current -384 304 R180
WINDOW 3 -2 162 Invisible 2
WINDOW 123 -279 149 Left 2
WINDOW 39 0 0 Left 0
SYMATTR Value PULSE(0 10u 120e-6 1e-9 1e-9 1e-9 260u 0)
SYMATTR InstName I1
SYMBOL cap 496 176 R90
WINDOW 0 0 32 VBottom 2
WINDOW 3 32 32 VTop 2
SYMATTR InstName C3
SYMATTR Value 100p
SYMBOL res 528 192 R0
SYMATTR InstName R1
SYMATTR Value 1k
SYMBOL current -496 224 R0
WINDOW 3 1 158 Invisible 2
WINDOW 123 -279 149 Left 2
WINDOW 39 0 0 Left 0
SYMATTR Value PULSE(0 20n 60e-6 1e-7 1e-7 1e-5 60u 1)
SYMATTR InstName I2
SYMBOL current -608 224 R0
WINDOW 3 0 160 Invisible 2
WINDOW 123 -279 149 Left 2
WINDOW 39 0 0 Left 0
SYMATTR Value PULSE(0 100n 20u 1e-7 1e-7 1e-5 60u 1)
SYMATTR InstName I3
SYMBOL res 16 -112 R270
WINDOW 0 32 56 VTop 2
WINDOW 3 0 56 VBottom 2
SYMATTR InstName R4
SYMATTR Value 5m
SYMBOL cap -48 144 R90
WINDOW 0 0 32 VBottom 2
WINDOW 3 32 32 VTop 2
SYMATTR InstName C4
SYMATTR Value 30p
SYMBOL res -16 -256 R180
WINDOW 0 36 76 Left 2
WINDOW 3 36 40 Left 2
SYMATTR InstName R3
SYMATTR Value 4k7
SYMBOL res -16 -432 R180
WINDOW 0 36 76 Left 2
WINDOW 3 36 40 Left 2
SYMATTR InstName R5
SYMATTR Value 9k
SYMBOL Comparators\\LT1716 -128 -400 M0
SYMATTR InstName U3
SYMBOL res 96 -368 R270
WINDOW 0 32 56 VTop 2
WINDOW 3 0 56 VBottom 2
SYMATTR InstName R8
SYMATTR Value 100k
SYMBOL cap 96 -288 R180
WINDOW 0 24 56 Left 2
WINDOW 3 24 8 Left 2
SYMATTR InstName C7
SYMATTR Value 1n
SYMBOL njf 240 -176 R90
SYMATTR InstName J4
SYMBOL njf 288 -480 M0
SYMATTR InstName J1
SYMBOL res 256 -256 R180
WINDOW 0 36 76 Left 2
WINDOW 3 36 40 Left 2
SYMATTR InstName R6
SYMATTR Value 4k7
SYMBOL diode -320 -384 R270
WINDOW 0 32 32 VTop 2
WINDOW 3 0 32 VBottom 2
SYMATTR InstName D1
SYMBOL res -336 -272 R180
WINDOW 0 36 76 Left 2
WINDOW 3 36 40 Left 2
SYMATTR InstName R7
SYMATTR Value 470k
SYMBOL Opamps\\LTC6269 80 192 R0
SYMATTR InstName U1
SYMBOL cap 880 0 R90
WINDOW 0 0 32 VBottom 2
WINDOW 3 32 32 VTop 2
SYMATTR InstName C5
SYMATTR Value 6p
SYMBOL Opamps\\LTC6269 816 224 R0
SYMATTR InstName U2
SYMBOL res 800 -96 R270
WINDOW 0 32 56 VTop 2
WINDOW 3 0 56 VBottom 2
SYMATTR InstName R9
SYMATTR Value 1e6
TEXT -312 544 Left 2 !.tran 0 2700m 15u startup
TEXT -312 576 Left 2 ;.step param R3 list 2e3 3e4 4e4
TEXT -312 608 Left 2 ;.param R3 1e15
TEXT -608 104 Left 2 ;Photomultiplier device.
RECTANGLE Normal -144 400 -672 64 2
