Version 4
SHEET 1 1664 1716
WIRE 64 -112 -16 -112
WIRE 272 -112 144 -112
WIRE -16 -16 -16 -112
WIRE 80 -16 -16 -16
WIRE 272 -16 272 -112
WIRE 272 -16 144 -16
WIRE 912 16 656 16
WIRE -192 48 -208 48
WIRE -80 48 -112 48
WIRE 880 48 736 48
WIRE 224 80 80 80
WIRE 736 80 736 48
WIRE 400 96 384 96
WIRE 512 96 480 96
WIRE 80 112 80 80
WIRE 656 128 656 16
WIRE 704 128 656 128
WIRE -208 160 -208 48
WIRE -208 160 -352 160
WIRE -192 160 -208 160
WIRE -80 160 -80 48
WIRE -16 160 -16 -16
WIRE -16 160 -80 160
WIRE 48 160 -16 160
WIRE 912 160 912 16
WIRE 912 160 848 160
WIRE 944 160 912 160
WIRE 1056 160 1024 160
WIRE 1072 160 1072 -32
WIRE 1072 160 1056 160
WIRE 1328 160 1072 160
WIRE -352 192 -352 160
WIRE 272 192 272 -16
WIRE 272 192 192 192
WIRE 384 192 384 96
WIRE 384 192 272 192
WIRE 400 192 384 192
WIRE 512 192 512 96
WIRE 512 192 464 192
WIRE 560 192 560 96
WIRE 560 192 512 192
WIRE 624 192 560 192
WIRE 704 192 624 192
WIRE 1056 208 1056 160
WIRE 48 224 -16 224
WIRE 624 224 624 192
WIRE -16 288 -16 224
WIRE -352 304 -352 272
WIRE 736 304 736 240
WIRE 880 304 880 48
WIRE 1056 304 1056 272
WIRE 624 320 624 304
WIRE 80 336 80 272
WIRE 224 336 224 80
WIRE 1328 480 1328 160
WIRE 1328 480 368 480
WIRE -320 512 -320 480
WIRE -192 512 -192 480
WIRE 1008 560 752 560
WIRE 976 592 832 592
WIRE 832 624 832 592
WIRE -320 640 -320 592
WIRE -192 640 -192 592
WIRE 496 640 480 640
WIRE 608 640 576 640
WIRE 752 672 752 560
WIRE 800 672 752 672
WIRE 1008 704 1008 560
WIRE 1008 704 944 704
WIRE 1040 704 1008 704
WIRE 1152 704 1120 704
WIRE 1280 704 1152 704
WIRE 368 736 368 480
WIRE 480 736 480 640
WIRE 480 736 368 736
WIRE 496 736 480 736
WIRE 608 736 608 640
WIRE 608 736 560 736
WIRE 720 736 608 736
WIRE 800 736 720 736
WIRE 1152 752 1152 704
WIRE 720 768 720 736
WIRE 832 848 832 784
WIRE 976 848 976 592
WIRE 1152 848 1152 816
WIRE 720 864 720 848
WIRE 1280 928 1280 704
WIRE 1280 928 368 928
WIRE 976 944 720 944
WIRE 944 976 800 976
WIRE 800 1008 800 976
WIRE 464 1024 448 1024
WIRE 576 1024 544 1024
WIRE 720 1056 720 944
WIRE 768 1056 720 1056
WIRE 976 1088 976 944
WIRE 976 1088 912 1088
WIRE 1008 1088 976 1088
WIRE 1120 1088 1088 1088
WIRE 1280 1088 1120 1088
WIRE 368 1120 368 928
WIRE 448 1120 448 1024
WIRE 448 1120 368 1120
WIRE 464 1120 448 1120
WIRE 576 1120 576 1024
WIRE 576 1120 528 1120
WIRE 688 1120 576 1120
WIRE 768 1120 688 1120
WIRE 1120 1136 1120 1088
WIRE 688 1152 688 1120
WIRE 800 1232 800 1168
WIRE 944 1232 944 976
WIRE 1120 1232 1120 1200
WIRE 688 1248 688 1232
WIRE 1280 1312 1280 1088
WIRE 1280 1312 368 1312
WIRE 960 1328 704 1328
WIRE 928 1360 784 1360
WIRE 784 1392 784 1360
WIRE 448 1408 432 1408
WIRE 560 1408 528 1408
WIRE 704 1440 704 1328
WIRE 752 1440 704 1440
WIRE 960 1472 960 1328
WIRE 960 1472 896 1472
WIRE 992 1472 960 1472
WIRE 1104 1472 1072 1472
WIRE 1120 1472 1104 1472
WIRE 368 1504 368 1312
WIRE 432 1504 432 1408
WIRE 432 1504 368 1504
WIRE 448 1504 432 1504
WIRE 560 1504 560 1408
WIRE 560 1504 512 1504
WIRE 672 1504 560 1504
WIRE 752 1504 672 1504
WIRE 1104 1520 1104 1472
WIRE 672 1536 672 1504
WIRE 784 1616 784 1552
WIRE 928 1616 928 1360
WIRE 1104 1616 1104 1584
WIRE 672 1632 672 1616
FLAG 560 96 1st_charge_amp_out
FLAG -192 640 0
FLAG -320 480 Vcc
FLAG 224 336 Vcc
FLAG -192 480 Vee
FLAG 80 336 Vee
FLAG 624 320 0
FLAG -320 640 0
FLAG -16 288 0
FLAG 880 304 Vcc
FLAG 736 304 Vee
FLAG 1072 -32 2nd_charge_amp_out
FLAG -352 304 0
FLAG 1056 304 0
FLAG 720 864 0
FLAG 976 848 Vcc
FLAG 832 848 Vee
FLAG 1152 848 0
FLAG 688 1248 0
FLAG 944 1232 Vcc
FLAG 800 1232 Vee
FLAG 1120 1232 0
FLAG 672 1632 0
FLAG 928 1616 Vcc
FLAG 784 1616 Vee
FLAG 1104 1616 0
SYMBOL cap 144 -32 R90
WINDOW 0 0 32 VBottom 2
WINDOW 3 32 32 VTop 2
SYMATTR InstName C1
SYMATTR Value 20p
SYMBOL voltage -192 608 R180
WINDOW 123 0 0 Left 0
WINDOW 39 0 0 Left 0
SYMATTR InstName V3
SYMATTR Value 16
SYMBOL voltage -320 496 R0
WINDOW 123 0 0 Left 0
WINDOW 39 0 0 Left 0
SYMATTR InstName V4
SYMATTR Value 16
SYMBOL cap -128 144 R90
WINDOW 0 0 32 VBottom 2
WINDOW 3 32 32 VTop 2
SYMATTR InstName C4
SYMATTR Value 120p
SYMBOL Opamps\\LTC6269 80 192 R0
SYMATTR InstName U1
SYMBOL Opamps\\LTC6269 736 160 R0
SYMATTR InstName U2
SYMBOL current -352 192 R0
WINDOW 0 15 107 Left 2
WINDOW 3 -86 170 Left 2
WINDOW 123 14 76 Left 2
WINDOW 39 0 0 Left 2
SYMATTR InstName I1
SYMATTR Value PULSE(0 400u 1mS 300n 2u 100n 1m)
SYMATTR Value2 AC 1
SYMBOL res -208 64 R270
WINDOW 0 32 56 VTop 2
WINDOW 3 0 56 VBottom 2
SYMATTR InstName R2
SYMATTR Value 50
SYMBOL res 48 -96 R270
WINDOW 0 32 56 VTop 2
WINDOW 3 0 56 VBottom 2
SYMATTR InstName R10
SYMATTR Value 1e7
SYMBOL res 928 176 R270
WINDOW 0 32 56 VTop 2
WINDOW 3 0 56 VBottom 2
SYMATTR InstName R1
SYMATTR Value 1e6
SYMBOL cap 1072 272 R180
WINDOW 0 24 56 Left 2
WINDOW 3 24 8 Left 2
SYMATTR InstName C2
SYMATTR Value 200p
SYMBOL cap 400 208 R270
WINDOW 0 32 32 VTop 2
WINDOW 3 0 32 VBottom 2
SYMATTR InstName C3
SYMATTR Value 200p
SYMBOL res 384 112 R270
WINDOW 0 32 56 VTop 2
WINDOW 3 0 56 VBottom 2
SYMATTR InstName R4
SYMATTR Value 1e6
SYMBOL res 608 208 R0
SYMATTR InstName R3
SYMATTR Value 1e6
SYMBOL Opamps\\LTC6269 832 704 R0
SYMATTR InstName U3
SYMBOL res 1024 720 R270
WINDOW 0 32 56 VTop 2
WINDOW 3 0 56 VBottom 2
SYMATTR InstName R5
SYMATTR Value 1e6
SYMBOL cap 1168 816 R180
WINDOW 0 24 56 Left 2
WINDOW 3 24 8 Left 2
SYMATTR InstName C5
SYMATTR Value 200p
SYMBOL cap 496 752 R270
WINDOW 0 32 32 VTop 2
WINDOW 3 0 32 VBottom 2
SYMATTR InstName C6
SYMATTR Value 200p
SYMBOL res 480 656 R270
WINDOW 0 32 56 VTop 2
WINDOW 3 0 56 VBottom 2
SYMATTR InstName R6
SYMATTR Value 1e6
SYMBOL res 704 752 R0
SYMATTR InstName R7
SYMATTR Value 1e6
SYMBOL Opamps\\LTC6269 800 1088 R0
SYMATTR InstName U4
SYMBOL res 992 1104 R270
WINDOW 0 32 56 VTop 2
WINDOW 3 0 56 VBottom 2
SYMATTR InstName R8
SYMATTR Value 1e6
SYMBOL cap 1136 1200 R180
WINDOW 0 24 56 Left 2
WINDOW 3 24 8 Left 2
SYMATTR InstName C7
SYMATTR Value 200p
SYMBOL cap 464 1136 R270
WINDOW 0 32 32 VTop 2
WINDOW 3 0 32 VBottom 2
SYMATTR InstName C8
SYMATTR Value 200p
SYMBOL res 448 1040 R270
WINDOW 0 32 56 VTop 2
WINDOW 3 0 56 VBottom 2
SYMATTR InstName R9
SYMATTR Value 1e6
SYMBOL res 672 1136 R0
SYMATTR InstName R11
SYMATTR Value 1e6
SYMBOL Opamps\\LTC6269 784 1472 R0
SYMATTR InstName U5
SYMBOL res 976 1488 R270
WINDOW 0 32 56 VTop 2
WINDOW 3 0 56 VBottom 2
SYMATTR InstName R12
SYMATTR Value 1e6
SYMBOL cap 1120 1584 R180
WINDOW 0 24 56 Left 2
WINDOW 3 24 8 Left 2
SYMATTR InstName C9
SYMATTR Value 200p
SYMBOL cap 448 1520 R270
WINDOW 0 32 32 VTop 2
WINDOW 3 0 32 VBottom 2
SYMATTR InstName C10
SYMATTR Value 200p
SYMBOL res 432 1424 R270
WINDOW 0 32 56 VTop 2
WINDOW 3 0 56 VBottom 2
SYMATTR InstName R13
SYMATTR Value 1e6
SYMBOL res 656 1520 R0
SYMATTR InstName R14
SYMATTR Value 1e6
TEXT -104 464 Left 2 !.tran 0 10mS 0 1uS
TEXT -104 496 Left 2 ;.step param R3 list 2e3 3e4 4e4
TEXT -104 528 Left 2 ;.param R3 1e15
TEXT -104 584 Left 2 !.options method=gear\n.options trtol=10
