Version 4
SHEET 1 1880 2280
WIRE 64 -112 -16 -112
WIRE 272 -112 144 -112
WIRE -416 -32 -544 -32
WIRE -16 -16 -16 -112
WIRE 80 -16 -16 -16
WIRE 272 -16 272 -112
WIRE 272 -16 144 -16
WIRE -416 16 -416 -32
WIRE -256 64 -272 64
WIRE -160 64 -176 64
WIRE 400 96 384 96
WIRE 512 96 480 96
WIRE 752 112 592 112
WIRE 96 144 96 128
WIRE 656 144 656 80
WIRE -416 160 -416 96
WIRE -384 160 -416 160
WIRE -272 160 -272 64
WIRE -272 160 -320 160
WIRE -256 160 -272 160
WIRE -160 160 -160 64
WIRE -160 160 -192 160
WIRE -128 160 -160 160
WIRE -16 160 -16 -16
WIRE -16 160 -48 160
WIRE 64 160 -16 160
WIRE 592 160 592 112
WIRE 624 160 592 160
WIRE 272 176 272 -16
WIRE 272 176 128 176
WIRE 752 176 752 112
WIRE 752 176 688 176
WIRE 864 176 752 176
WIRE -544 192 -544 -32
WIRE -416 192 -416 160
WIRE 64 192 -16 192
WIRE 272 192 272 176
WIRE 320 192 320 80
WIRE 320 192 272 192
WIRE 384 192 384 96
WIRE 384 192 320 192
WIRE 400 192 384 192
WIRE 512 192 512 96
WIRE 512 192 464 192
WIRE 624 192 512 192
WIRE 512 224 512 192
WIRE 96 272 96 208
WIRE 656 272 656 208
WIRE -16 288 -16 192
WIRE -544 304 -544 272
WIRE -416 304 -416 272
WIRE 512 352 512 304
WIRE -16 400 -16 368
WIRE 512 464 512 432
WIRE 864 608 864 176
WIRE 864 608 -560 608
WIRE -80 736 -368 736
WIRE 96 736 0 736
WIRE 560 736 272 736
WIRE 736 736 640 736
WIRE -80 832 -208 832
WIRE 96 832 96 736
WIRE 96 832 -16 832
WIRE 560 832 432 832
WIRE 736 832 736 736
WIRE 736 832 624 832
WIRE -96 912 -96 896
WIRE -560 928 -560 608
WIRE -480 928 -560 928
WIRE -368 928 -368 736
WIRE -368 928 -400 928
WIRE -336 928 -368 928
WIRE -208 928 -208 832
WIRE -208 928 -256 928
WIRE -128 928 -208 928
WIRE 544 928 544 912
WIRE 96 944 96 832
WIRE 96 944 -64 944
WIRE 160 944 96 944
WIRE 272 944 272 736
WIRE 272 944 240 944
WIRE 304 944 272 944
WIRE 432 944 432 832
WIRE 432 944 384 944
WIRE 512 944 432 944
WIRE -128 960 -160 960
WIRE 736 960 736 832
WIRE 736 960 576 960
WIRE 784 960 736 960
WIRE -368 976 -368 928
WIRE 512 976 480 976
WIRE -160 992 -160 960
WIRE -160 992 -288 992
WIRE 272 992 272 944
WIRE 480 1008 480 976
WIRE 480 1008 352 1008
WIRE -288 1040 -288 992
WIRE -96 1040 -96 976
WIRE -160 1056 -160 992
WIRE 352 1056 352 1008
WIRE 544 1056 544 992
WIRE -368 1072 -368 1040
WIRE 480 1072 480 1008
WIRE 272 1088 272 1056
WIRE -288 1168 -288 1120
WIRE -224 1168 -288 1168
WIRE -160 1168 -160 1120
WIRE -160 1168 -224 1168
WIRE 352 1184 352 1136
WIRE 416 1184 352 1184
WIRE 480 1184 480 1136
WIRE 480 1184 416 1184
WIRE -224 1216 -224 1168
WIRE 416 1232 416 1184
WIRE -224 1328 -224 1296
WIRE 416 1344 416 1312
WIRE -304 1568 -304 1536
WIRE -304 1696 -304 1648
FLAG 320 80 1st_charge_amp_out
FLAG -304 1536 Vcc
FLAG -304 1696 0
FLAG -416 304 0
FLAG -544 304 0
FLAG 784 960 output
IOPIN 784 960 Out
FLAG 272 1088 0
FLAG -368 1072 0
FLAG -224 1328 0
FLAG 416 1344 0
FLAG -96 896 Vcc
FLAG 544 912 Vcc
FLAG -96 1040 0
FLAG 544 1056 0
FLAG 656 80 Vcc
FLAG 656 272 0
FLAG 96 128 Vcc
FLAG 96 272 0
FLAG -16 400 0
FLAG 512 464 0
SYMBOL cap 144 -32 R90
WINDOW 0 0 32 VBottom 2
WINDOW 3 32 32 VTop 2
SYMATTR InstName Cf
SYMATTR Value 300p
SYMBOL voltage -304 1552 R0
WINDOW 123 0 0 Left 0
WINDOW 39 0 0 Left 0
SYMATTR InstName V4
SYMATTR Value 5
SYMBOL cap -192 144 R90
WINDOW 0 0 32 VBottom 2
WINDOW 3 32 32 VTop 2
SYMATTR InstName C4
SYMATTR Value 150p
SYMBOL current -416 192 R0
WINDOW 0 15 107 Left 2
WINDOW 3 -253 172 Left 2
WINDOW 123 14 76 Left 2
WINDOW 39 0 0 Left 2
SYMATTR InstName I1
SYMATTR Value PULSE(0 400u 1mS 300n 2u 100n 3m 8)
SYMATTR Value2 AC 1
SYMBOL res 48 -96 R270
WINDOW 0 32 56 VTop 2
WINDOW 3 0 56 VBottom 2
SYMATTR InstName Rf
SYMATTR Value 10e5
SYMBOL cap 400 208 R270
WINDOW 0 32 32 VTop 2
WINDOW 3 0 32 VBottom 2
SYMATTR InstName C3
SYMATTR Value {Czero}
SYMBOL res 384 112 R270
WINDOW 0 32 56 VTop 2
WINDOW 3 0 56 VBottom 2
SYMATTR InstName R4
SYMATTR Value {Rzero}
SYMBOL voltage -544 176 R0
WINDOW 123 0 0 Left 0
WINDOW 39 0 0 Left 0
SYMATTR InstName V1
SYMATTR Value 1500
SYMBOL res -432 0 R0
SYMATTR InstName Rf1
SYMATTR Value 2e8
SYMBOL res -144 176 R270
WINDOW 0 32 56 VTop 2
WINDOW 3 0 56 VBottom 2
SYMATTR InstName Rf2
SYMATTR Value 1
SYMBOL res -272 80 R270
WINDOW 0 32 56 VTop 2
WINDOW 3 0 56 VBottom 2
SYMATTR InstName Rf3
SYMATTR Value 1e6
SYMBOL cap -320 144 R90
WINDOW 0 0 32 VBottom 2
WINDOW 3 32 32 VTop 2
SYMATTR InstName C6
SYMATTR Value 150n
SYMBOL res 496 208 R0
SYMATTR InstName R2
SYMATTR Value 100k
SYMBOL res 144 960 R270
WINDOW 0 32 56 VTop 2
WINDOW 3 0 56 VBottom 2
SYMATTR InstName R6
SYMATTR Value 3k9
SYMBOL cap 288 1056 R180
WINDOW 0 24 56 Left 2
WINDOW 3 24 8 Left 2
SYMATTR InstName C5
SYMATTR Value 33n
SYMBOL res 288 960 R270
WINDOW 0 32 56 VTop 2
WINDOW 3 0 56 VBottom 2
SYMATTR InstName R7
SYMATTR Value 5k6
SYMBOL res 544 752 R270
WINDOW 0 32 56 VTop 2
WINDOW 3 0 56 VBottom 2
SYMATTR InstName R9
SYMATTR Value 3k9
SYMBOL cap 560 848 R270
WINDOW 0 32 32 VTop 2
WINDOW 3 0 32 VBottom 2
SYMATTR InstName C8
SYMATTR Value 10n
SYMBOL res 336 1040 R0
SYMATTR InstName R10
SYMATTR Value 3k9
SYMBOL cap 496 1136 R180
WINDOW 0 24 56 Left 2
WINDOW 3 24 8 Left 2
SYMATTR InstName C9
SYMATTR Value 33n
SYMBOL TLC27M2 544 896 R0
WINDOW 3 18 126 Left 2
SYMATTR InstName U4
SYMBOL res -496 944 R270
WINDOW 0 32 56 VTop 2
WINDOW 3 0 56 VBottom 2
SYMATTR InstName R1
SYMATTR Value 3k9
SYMBOL cap -352 1040 R180
WINDOW 0 24 56 Left 2
WINDOW 3 24 8 Left 2
SYMATTR InstName C1
SYMATTR Value 33n
SYMBOL res -352 944 R270
WINDOW 0 32 56 VTop 2
WINDOW 3 0 56 VBottom 2
SYMATTR InstName R3
SYMATTR Value 5k6
SYMBOL res -96 752 R270
WINDOW 0 32 56 VTop 2
WINDOW 3 0 56 VBottom 2
SYMATTR InstName R5
SYMATTR Value 3k9
SYMBOL cap -80 848 R270
WINDOW 0 32 32 VTop 2
WINDOW 3 0 32 VBottom 2
SYMATTR InstName C2
SYMATTR Value 10n
SYMBOL res -304 1024 R0
SYMATTR InstName R8
SYMATTR Value 3k9
SYMBOL cap -144 1120 R180
WINDOW 0 24 56 Left 2
WINDOW 3 24 8 Left 2
SYMATTR InstName C7
SYMATTR Value 33n
SYMBOL TLC27M2 -96 880 R0
WINDOW 3 18 126 Left 2
SYMATTR InstName U2
SYMBOL TLC27M2 656 112 R0
WINDOW 3 18 126 Left 2
SYMATTR InstName U5
SYMBOL voltage -224 1200 R0
WINDOW 123 0 0 Left 0
WINDOW 39 0 0 Left 0
SYMATTR InstName V5
SYMATTR Value {VirtualGND}
SYMBOL voltage 416 1216 R0
WINDOW 123 0 0 Left 0
WINDOW 39 0 0 Left 0
SYMATTR InstName V6
SYMATTR Value {VirtualGND}
SYMBOL voltage -16 272 R0
WINDOW 123 0 0 Left 0
WINDOW 39 0 0 Left 0
SYMATTR InstName V2
SYMATTR Value {VirtualGND}
SYMBOL voltage 512 336 R0
WINDOW 123 0 0 Left 0
WINDOW 39 0 0 Left 0
SYMATTR InstName V3
SYMATTR Value {VirtualGND}
SYMBOL Opamps\\LTC6240 96 176 R0
SYMATTR InstName U3
TEXT -632 1512 Left 2 !.tran 0 25mS 0 1uS
TEXT -88 1552 Left 2 ;.step param R list 1e3 1e4 1e5
TEXT -648 1768 Left 2 !.param VirtualGND=2
TEXT -632 1544 Left 2 !.options method=gear\n.options trtol=10
TEXT -88 1680 Left 2 ;Rf * Cf >> PMT pulse time
TEXT -640 1640 Left 2 !.param Rf=1e5
TEXT -640 1672 Left 2 !.param Rzero=60e5
TEXT -88 1608 Left 2 ;Rzero=Rf*N\nCzero=Cf/N
TEXT -640 1704 Left 2 !.param Czero=50p
TEXT -648 1824 Left 2 !.inc TLC27M2.5_2
