Version 4
SHEET 1 1524 1716
WIRE -112 16 -112 -64
WIRE -560 80 -656 80
WIRE -400 80 -560 80
WIRE -368 80 -400 80
WIRE -272 80 -304 80
WIRE -208 80 -272 80
WIRE -160 80 -208 80
WIRE 992 112 912 112
WIRE 1152 112 1072 112
WIRE -656 144 -656 80
WIRE -112 144 -112 112
WIRE 64 144 -112 144
WIRE 80 144 64 144
WIRE 208 144 160 144
WIRE 224 144 208 144
WIRE 336 144 304 144
WIRE 384 144 336 144
WIRE 512 144 464 144
WIRE 640 144 640 80
WIRE 640 144 512 144
WIRE 704 144 640 144
WIRE -560 160 -560 80
WIRE -400 160 -400 80
WIRE -272 160 -272 80
WIRE 1120 176 1040 176
WIRE 1040 192 1040 176
WIRE 64 208 64 144
WIRE 208 208 208 144
WIRE 336 208 336 144
WIRE 512 208 512 144
WIRE 704 208 704 144
WIRE 752 208 704 208
WIRE 912 208 912 112
WIRE 912 208 832 208
WIRE 1008 208 912 208
WIRE 1152 224 1152 112
WIRE 1152 224 1072 224
WIRE 1200 224 1200 160
WIRE 1200 224 1152 224
WIRE 976 240 896 240
WIRE 1008 240 976 240
WIRE -656 272 -656 224
WIRE -560 272 -560 224
WIRE -400 272 -400 240
WIRE -272 272 -272 240
WIRE -112 272 -112 224
WIRE 64 304 64 272
WIRE 208 304 208 272
WIRE 336 304 336 272
WIRE 512 304 512 272
WIRE 752 304 704 304
WIRE 896 304 896 240
WIRE 896 304 832 304
WIRE 976 320 976 240
WIRE 1040 320 1040 256
WIRE 1120 320 1120 176
WIRE 640 416 640 368
WIRE 640 416 0 416
WIRE 704 416 704 304
WIRE 704 416 640 416
WIRE 976 432 976 400
WIRE -112 512 -112 448
WIRE -208 576 -208 80
WIRE -160 576 -208 576
WIRE -112 624 -112 608
WIRE 0 624 0 416
WIRE 0 624 -112 624
WIRE -112 640 -112 624
WIRE -112 768 -112 720
WIRE -144 896 -144 864
WIRE -16 896 -16 864
WIRE -144 1024 -144 976
WIRE -16 1024 -16 976
FLAG -560 272 0
FLAG -16 1024 0
FLAG -144 864 Vcc
FLAG 1120 320 Vcc
FLAG -16 864 Vee
FLAG 1040 320 Vee
FLAG -144 1024 0
FLAG -656 272 0
FLAG 64 304 0
FLAG 208 304 0
FLAG 336 304 0
FLAG 976 432 0
FLAG -112 272 0
FLAG -112 -64 Vcc
FLAG -400 272 0
FLAG -272 272 0
FLAG 640 80 DelaylineOut
FLAG 640 368 NoDelaylineOut
FLAG -112 768 0
FLAG -112 448 Vcc
FLAG 512 304 0
FLAG 1200 160 AmpliifierOutput
SYMBOL voltage -16 992 R180
WINDOW 123 0 0 Left 0
WINDOW 39 0 0 Left 0
SYMATTR InstName V3
SYMATTR Value 8
SYMBOL voltage -144 880 R0
WINDOW 123 0 0 Left 0
WINDOW 39 0 0 Left 0
SYMATTR InstName V4
SYMATTR Value 8
SYMBOL cap -576 160 R0
SYMATTR InstName C2
SYMATTR Value 100p
SYMBOL current -656 144 R0
WINDOW 3 0 160 Invisible 2
WINDOW 123 -279 149 Left 2
WINDOW 39 0 0 Left 0
SYMATTR Value PULSE(0 30u 10u 1e-7 1e-7 2n 10u 1)
SYMATTR InstName I3
SYMBOL Opamps\\AD8034 1040 160 R0
SYMATTR InstName U2
SYMBOL ind 64 160 R270
WINDOW 0 32 56 VTop 2
WINDOW 3 5 56 VBottom 2
SYMATTR InstName L1
SYMATTR Value {LD}
SYMBOL ind 208 160 R270
WINDOW 0 32 56 VTop 2
WINDOW 3 5 56 VBottom 2
SYMATTR InstName L2
SYMATTR Value {LD}
SYMBOL cap 80 272 R180
WINDOW 0 24 56 Left 2
WINDOW 3 24 8 Left 2
SYMATTR InstName C1
SYMATTR Value {CD}
SYMBOL cap 224 272 R180
WINDOW 0 24 56 Left 2
WINDOW 3 24 8 Left 2
SYMATTR InstName C3
SYMATTR Value {CD}
SYMBOL cap 352 272 R180
WINDOW 0 24 56 Left 2
WINDOW 3 24 8 Left 2
SYMATTR InstName C5
SYMATTR Value {CD}
SYMBOL res 736 224 R270
WINDOW 0 32 56 VTop 2
WINDOW 3 0 56 VBottom 2
SYMATTR InstName R3
SYMATTR Value {R3}
SYMBOL res 992 416 R180
WINDOW 0 36 76 Left 2
WINDOW 3 36 40 Left 2
SYMATTR InstName R4
SYMATTR Value {Rfeedback}
SYMBOL res 1088 96 R90
WINDOW 0 0 56 VBottom 2
WINDOW 3 32 56 VTop 2
SYMATTR InstName R6
SYMATTR Value {Rfeedback}
SYMBOL res -96 240 R180
WINDOW 0 36 76 Left 2
WINDOW 3 36 40 Left 2
SYMATTR InstName R7
SYMATTR Value 4k7
SYMBOL res -384 256 R180
WINDOW 0 36 76 Left 2
WINDOW 3 36 40 Left 2
SYMATTR InstName R8
SYMATTR Value 10k
SYMBOL cap -304 64 R90
WINDOW 0 0 32 VBottom 2
WINDOW 3 32 32 VTop 2
SYMATTR InstName C6
SYMATTR Value 100p
SYMBOL res 736 320 R270
WINDOW 0 32 56 VTop 2
WINDOW 3 0 56 VBottom 2
SYMATTR InstName R1
SYMATTR Value {R3}
SYMBOL res -256 256 R180
WINDOW 0 36 76 Left 2
WINDOW 3 36 40 Left 2
SYMATTR InstName R2
SYMATTR Value 10k
SYMBOL njf -160 16 R0
SYMATTR InstName J1
SYMBOL res -96 736 R180
WINDOW 0 36 76 Left 2
WINDOW 3 36 40 Left 2
SYMATTR InstName R5
SYMATTR Value 4k7
SYMBOL njf -160 512 R0
SYMATTR InstName J2
SYMBOL cap 528 272 R180
WINDOW 0 24 56 Left 2
WINDOW 3 24 8 Left 2
SYMATTR InstName C4
SYMATTR Value {CD}
SYMBOL ind 368 160 R270
WINDOW 0 32 56 VTop 2
WINDOW 3 5 56 VBottom 2
SYMATTR InstName L3
SYMATTR Value {LD}
TEXT -184 1072 Left 2 !.tran 0 12u 10u startup
TEXT 88 -200 Left 2 ;.step dec param CD 1e-12 1e-9 1
TEXT 488 -136 Left 2 !.param R3 10k
TEXT -664 16 Left 2 ;Photomultiplier device.
TEXT 96 -152 Left 2 !.param LD 22n
TEXT 104 -112 Left 2 !.param CD 22p
TEXT 488 -104 Left 2 !.param Rfeedback 100k
RECTANGLE Normal -224 320 -720 -16 2
