Version 4
SHEET 1 1428 1716
WIRE 16 624 -64 624
WIRE 160 624 96 624
WIRE 560 672 480 672
WIRE 112 688 32 688
WIRE 480 688 480 672
WIRE 32 704 32 688
WIRE 448 704 256 704
WIRE -64 720 -64 624
WIRE 0 720 -64 720
WIRE 656 720 656 704
WIRE 656 720 512 720
WIRE 160 736 160 624
WIRE 160 736 64 736
WIRE 448 736 160 736
WIRE 0 752 -256 752
WIRE 256 768 256 704
WIRE -64 784 -64 720
WIRE -256 800 -256 752
WIRE 480 816 480 752
WIRE 560 816 560 672
WIRE 32 832 32 768
WIRE 112 832 112 688
WIRE -64 896 -64 864
WIRE 256 896 256 848
WIRE -256 912 -256 880
WIRE -304 1152 -304 1120
WIRE -176 1152 -176 1120
WIRE -304 1280 -304 1232
WIRE -176 1280 -176 1232
FLAG -176 1280 0
FLAG -304 1120 Vcc
FLAG -176 1120 Vee
FLAG -304 1280 0
FLAG 560 816 Vcc
FLAG 480 816 Vee
FLAG 656 704 discriminator
FLAG 256 896 0
FLAG 112 832 Vcc
FLAG 32 832 Vee
FLAG -64 896 0
FLAG -256 912 0
SYMBOL voltage -176 1248 R180
WINDOW 123 0 0 Left 0
WINDOW 39 0 0 Left 0
SYMATTR InstName V3
SYMATTR Value 8
SYMBOL voltage -304 1136 R0
WINDOW 123 0 0 Left 0
WINDOW 39 0 0 Left 0
SYMATTR InstName V4
SYMATTR Value 8
SYMBOL voltage 256 752 R0
WINDOW 123 0 0 Left 0
WINDOW 39 0 0 Left 0
SYMATTR InstName V1
SYMATTR Value 9.8m
SYMBOL res 112 608 R90
WINDOW 0 0 56 VBottom 2
WINDOW 3 32 56 VTop 2
SYMATTR InstName R9
SYMATTR Value 22k
SYMBOL res -48 880 R180
WINDOW 0 36 76 Left 2
WINDOW 3 36 40 Left 2
SYMATTR InstName R10
SYMATTR Value 10k
SYMBOL voltage -256 784 R0
WINDOW 123 0 0 Left 0
WINDOW 39 0 0 Left 0
WINDOW 3 24 96 Invisible 2
SYMATTR Value PULSE(0 12m 5m 1n 1n 10n 160u 1)
SYMATTR InstName V2
SYMBOL Comparators\\LT1017 480 720 R0
SYMATTR InstName U2
SYMBOL Opamps\\AD8039 32 672 R0
SYMATTR InstName U1
TEXT -344 1328 Left 2 !.tran 0 10m 0 50n startup
TEXT -344 1448 Left 2 ;.step param R3 list 2e3 3e4 4e4
TEXT -336 1392 Left 2 ;.param R3 1e15
