Version 4
SHEET 1 1552 1844
WIRE -96 16 -96 -48
WIRE -400 80 -592 80
WIRE -144 80 -400 80
WIRE -592 128 -592 80
WIRE -400 128 -400 80
WIRE -96 144 -96 112
WIRE -96 240 -96 224
WIRE 16 240 -96 240
WIRE 176 240 96 240
WIRE 240 240 176 240
WIRE 368 240 320 240
WIRE 416 240 416 208
WIRE 416 240 368 240
WIRE -592 256 -592 208
WIRE -96 256 -96 240
WIRE 176 272 176 240
WIRE 368 272 368 240
WIRE -400 288 -400 208
WIRE -144 320 -208 320
WIRE -592 368 -592 336
WIRE -96 368 -96 352
WIRE 176 368 176 336
WIRE 368 368 368 336
WIRE -400 400 -400 368
WIRE -208 480 -208 320
WIRE -96 480 -96 448
WIRE -528 752 -528 720
WIRE -400 752 -400 720
WIRE -528 880 -528 832
WIRE -400 880 -400 832
FLAG -400 880 0
FLAG -528 720 Vcc
FLAG -400 720 Vee
FLAG -528 880 0
FLAG -96 -48 Vcc
FLAG -400 400 0
FLAG -592 368 0
FLAG 176 368 0
FLAG -96 480 Vee
FLAG -208 480 Vee
FLAG 368 368 0
FLAG 416 208 continous_mode_adc_in
SYMBOL voltage -400 848 R180
WINDOW 123 0 0 Left 0
WINDOW 39 0 0 Left 0
SYMATTR InstName V3
SYMATTR Value 8
SYMBOL voltage -528 736 R0
WINDOW 123 0 0 Left 0
WINDOW 39 0 0 Left 0
SYMATTR InstName V4
SYMATTR Value 8
SYMBOL res -80 464 R180
WINDOW 0 36 76 Left 2
WINDOW 3 36 40 Left 2
SYMATTR InstName R7
SYMATTR Value 47R
SYMBOL voltage -400 272 R0
WINDOW 123 0 0 Left 0
WINDOW 39 0 0 Left 0
WINDOW 3 -280 158 Left 2
SYMATTR Value PULSE(0n 120m 100u 1n 1n 6n 100u 2)
SYMATTR InstName V1
SYMBOL njf -144 16 R0
SYMATTR InstName J5
SYMBOL voltage -592 240 R0
WINDOW 123 0 0 Left 0
WINDOW 39 0 0 Left 0
WINDOW 3 -280 158 Left 2
SYMATTR Value PULSE(0n 500m 1.4m 1n 1n 6n 10u 20)
SYMATTR InstName V2
SYMBOL res -608 112 R0
SYMATTR InstName R1
SYMATTR Value 1
SYMBOL res -416 112 R0
SYMATTR InstName R2
SYMATTR Value 1
SYMBOL cap 192 336 R180
WINDOW 0 24 56 Left 2
WINDOW 3 24 8 Left 2
SYMATTR InstName C2
SYMATTR Value 100n
SYMBOL njf -144 256 R0
SYMATTR InstName J1
SYMBOL res -80 240 R180
WINDOW 0 36 76 Left 2
WINDOW 3 36 40 Left 2
SYMATTR InstName R3
SYMATTR Value 47R
SYMBOL res 0 256 R270
WINDOW 0 32 56 VTop 2
WINDOW 3 0 56 VBottom 2
SYMATTR InstName R5
SYMATTR Value 500R
SYMBOL cap 384 336 R180
WINDOW 0 24 56 Left 2
WINDOW 3 24 8 Left 2
SYMATTR InstName C1
SYMATTR Value 47n
SYMBOL res 224 256 R270
WINDOW 0 32 56 VTop 2
WINDOW 3 0 56 VBottom 2
SYMATTR InstName R6
SYMATTR Value 1k
TEXT -568 928 Left 2 !.tran 0 2320u 30u 10n uic
TEXT -184 704 Left 2 ;.step dec param CD 1e-8 1e-1 1
TEXT -864 24 Left 2 ;Pulse conditioner output
TEXT -184 664 Left 2 ;.step dec param CD 1e-4 1e-6 1
RECTANGLE Normal -240 464 -896 -16 2
